/work/05124/newman/stampede2/my_of3/sonicFoam2
Tue Apr 30 18:04:55 CDT 2019
/*---------------------------------------------------------------------------*\
  =========                 |
  \\      /  F ield         | OpenFOAM: The Open Source CFD Toolbox
   \\    /   O peration     | Website:  https://openfoam.org
    \\  /    A nd           | Version:  6.0
     \\/     M anipulation  |
\*---------------------------------------------------------------------------*/
Build  : 6.0
Exec   : blockMesh
Date   : Apr 30 2019
Time   : 18:04:56
Host   : "c401-002.stampede2.tacc.utexas.edu"
PID    : 153203
I/O    : uncollated
Case   : /work/05124/newman/stampede2/my_of3/sonicFoam2
nProcs : 1
sigFpe : Enabling floating point exception trapping (FOAM_SIGFPE).
fileModificationChecking : Monitoring run-time modified files using timeStampMaster (fileModificationSkew 10)
allowSystemOperations : Allowing user-supplied system call operations

// * * * * * * * * * * * * * * * * * * * * * * * * * * * * * * * * * * * * * //
Create time

Deleting polyMesh directory
    "/work/05124/newman/stampede2/my_of3/sonicFoam2/constant/polyMesh"
Creating block mesh from
    "/work/05124/newman/stampede2/my_of3/sonicFoam2/system/blockMeshDict"
No non-linear block edges defined
No non-planar block faces defined
Creating topology blocks
Creating topology patches

Creating block mesh topology
--> FOAM Warning : 
    From function Foam::polyMesh::polyMesh(const Foam::IOobject &, const Foam::Xfer<Foam::Field<Foam::Vector<double>>> &, const Foam::List<Foam::cellShape> &, const Foam::List<Foam::List<Foam::face>> &, const Foam::List<Foam::word> &, const Foam::PtrList<Foam::dictionary> &, const Foam::word &, const Foam::word &, bool)
    in file meshes/polyMesh/polyMeshFromShapeMesh.C at line 871
    Found 6 undefined faces in mesh; adding to default patch.

Check topology

	Basic statistics
		Number of internal faces : 2
		Number of boundary faces : 14
		Number of defined boundary faces : 14
		Number of undefined boundary faces : 0
	Checking patch -> block consistency

Creating block offsets
Creating merge list .

Creating polyMesh from blockMesh
Creating points with scale 1
    Block 0 cell size :
        i : 0.03 .. 0.03
        j : 0.01 .. 0.01
        k : 0.005 .. 0.005

    Block 1 cell size :
        i : 0.03 .. 0.03
        j : 0.04 .. 0.04
        k : 0.005 .. 0.005

    Block 2 cell size :
        i : 0.12 .. 0.12
        j : 0.04 .. 0.04
        k : 0.005 .. 0.005

Creating cells
Creating patches

Writing polyMesh
----------------
Mesh Information
----------------
  boundingBox: (0 0 -0.05) (3 1 0.05)
  nPoints: 26901
  nCells: 24000
  nFaces: 74800
  nInternalFaces: 69200
----------------
Patches
----------------
  patch 0 (start: 69200 size: 800) name: inlet
  patch 1 (start: 70000 size: 400) name: outlet
  patch 2 (start: 70400 size: 800) name: top
  patch 3 (start: 71200 size: 400) name: bottom
  patch 4 (start: 71600 size: 800) name: step
  patch 5 (start: 72400 size: 2400) name: defaultFaces

End

/*---------------------------------------------------------------------------*\
  =========                 |
  \\      /  F ield         | OpenFOAM: The Open Source CFD Toolbox
   \\    /   O peration     | Website:  https://openfoam.org
    \\  /    A nd           | Version:  6.0
     \\/     M anipulation  |
\*---------------------------------------------------------------------------*/
Build  : 6.0
Exec   : checkMesh
Date   : Apr 30 2019
Time   : 18:04:58
Host   : "c401-002.stampede2.tacc.utexas.edu"
PID    : 153210
I/O    : uncollated
Case   : /work/05124/newman/stampede2/my_of3/sonicFoam2
nProcs : 1
sigFpe : Enabling floating point exception trapping (FOAM_SIGFPE).
fileModificationChecking : Monitoring run-time modified files using timeStampMaster (fileModificationSkew 10)
allowSystemOperations : Allowing user-supplied system call operations

// * * * * * * * * * * * * * * * * * * * * * * * * * * * * * * * * * * * * * //
Create time

Create polyMesh for time = 0

Time = 0

Mesh stats
    points:           26901
    faces:            74800
    internal faces:   69200
    cells:            24000
    faces per cell:   6
    boundary patches: 6
    point zones:      0
    face zones:       0
    cell zones:       0

Overall number of cells of each type:
    hexahedra:     24000
    prisms:        0
    wedges:        0
    pyramids:      0
    tet wedges:    0
    tetrahedra:    0
    polyhedra:     0

Checking topology...
    Boundary definition OK.
 ***Total number of faces on empty patches is not divisible by the number of cells in the mesh. Hence this mesh is not 1D or 2D.
    Cell to face addressing OK.
    Point usage OK.
    Upper triangular ordering OK.
    Face vertices OK.
    Number of regions: 1 (OK).

Checking patch topology for multiply connected surfaces...
    Patch               Faces    Points   Surface topology                  
    inlet               800      861      ok (non-closed singly connected)  
    outlet              400      441      ok (non-closed singly connected)  
    top                 800      861      ok (non-closed singly connected)  
    bottom              400      441      ok (non-closed singly connected)  
    step                800      861      ok (non-closed singly connected)  
    defaultFaces        2400     2562     ok (non-closed singly connected)  

Checking geometry...
    Overall domain bounding box (0 0 -0.05) (3 1 0.05)
    Mesh has 2 geometric (non-empty/wedge) directions (1 1 0)
    Mesh has 2 solution (non-empty) directions (1 1 0)
    All edges aligned with or perpendicular to non-empty directions.
    Boundary openness (-1.33437e-18 5.44552e-16 3.86154e-17) OK.
    Max cell openness = 1.807e-16 OK.
    Max aspect ratio = 3 OK.
    Minimum face area = 5e-05. Maximum face area = 0.0048.  Face area magnitudes OK.
    Min volume = 1.5e-06. Max volume = 2.4e-05.  Total volume = 0.252.  Cell volumes OK.
    Mesh non-orthogonality Max: 0 average: 0
    Non-orthogonality check OK.
    Face pyramids OK.
    Max skewness = 2.22045e-14 OK.
    Coupled point location match (average 0) OK.

Mesh OK.

End

/*---------------------------------------------------------------------------*\
  =========                 |
  \\      /  F ield         | OpenFOAM: The Open Source CFD Toolbox
   \\    /   O peration     | Website:  https://openfoam.org
    \\  /    A nd           | Version:  6.0
     \\/     M anipulation  |
\*---------------------------------------------------------------------------*/
Build  : 6.0
Exec   : sonicFoam
Date   : Apr 30 2019
Time   : 18:05:01
Host   : "c401-002.stampede2.tacc.utexas.edu"
PID    : 153268
I/O    : uncollated
Case   : /work/05124/newman/stampede2/my_of3/sonicFoam2
nProcs : 1
sigFpe : Enabling floating point exception trapping (FOAM_SIGFPE).
fileModificationChecking : Monitoring run-time modified files using timeStampMaster (fileModificationSkew 10)
allowSystemOperations : Allowing user-supplied system call operations

// * * * * * * * * * * * * * * * * * * * * * * * * * * * * * * * * * * * * * //
Create time

Create mesh for time = 0


PIMPLE: No convergence criteria found


PIMPLE: No corrector convergence criteria found
        Calclations will do 2 corrections

Reading thermophysical properties

Selecting thermodynamics package 
{
    type            hePsiThermo;
    mixture         pureMixture;
    transport       const;
    thermo          hConst;
    equationOfState perfectGas;
    specie          specie;
    energy          sensibleInternalEnergy;
}

Reading field U

Reading/calculating face flux field phi

Creating turbulence model

Selecting turbulence model type laminar
Selecting laminar stress model Stokes
Creating field kinetic energy K

No MRF models present

No finite volume options present

Starting time loop

Time = 0.001

Courant Number mean: 0.0427381 max: 0.1
diagonal:  Solving for rho, Initial residual = 0, Final residual = 0, No Iterations 0
PIMPLE: Iteration 1
smoothSolver:  Solving for Ux, Initial residual = 0.792569, Final residual = 0.380631, No Iterations 1000
smoothSolver:  Solving for Uy, Initial residual = 0.999724, Final residual = 5.35251e-17, No Iterations 1
smoothSolver:  Solving for e, Initial residual = 1, Final residual = 5.12149e-06, No Iterations 2
smoothSolver:  Solving for p, Initial residual = 1, Final residual = 1.93389e-08, No Iterations 3
diagonal:  Solving for rho, Initial residual = 0, Final residual = 0, No Iterations 0
time step continuity errors : sum local = 6.22036e-12, global = -2.41122e-12, cumulative = -2.41122e-12
PIMPLE: Iteration 2
smoothSolver:  Solving for Ux, Initial residual = 0.00320157, Final residual = 9.6129e-11, No Iterations 1
smoothSolver:  Solving for Uy, Initial residual = 0.0111453, Final residual = 1.6673e-10, No Iterations 1
smoothSolver:  Solving for e, Initial residual = 0.278792, Final residual = 1.5261e-07, No Iterations 2
smoothSolver:  Solving for p, Initial residual = 0.0962033, Final residual = 1.76927e-07, No Iterations 2
diagonal:  Solving for rho, Initial residual = 0, Final residual = 0, No Iterations 0
time step continuity errors : sum local = 1.03434e-09, global = -6.19123e-10, cumulative = -6.21534e-10
ExecutionTime = 4.45 s  ClockTime = 5 s

Time = 0.002

Courant Number mean: 0.0427372 max: 0.100111
diagonal:  Solving for rho, Initial residual = 0, Final residual = 0, No Iterations 0
PIMPLE: Iteration 1
smoothSolver:  Solving for Ux, Initial residual = 0.0611558, Final residual = 1.70836e-08, No Iterations 1
smoothSolver:  Solving for Uy, Initial residual = 0.12168, Final residual = 4.82525e-08, No Iterations 1
smoothSolver:  Solving for e, Initial residual = 0.0623784, Final residual = 1.94384e-08, No Iterations 2
smoothSolver:  Solving for p, Initial residual = 0.356588, Final residual = 4.87671e-07, No Iterations 2
diagonal:  Solving for rho, Initial residual = 0, Final residual = 0, No Iterations 0
time step continuity errors : sum local = 3.89352e-09, global = 1.04409e-10, cumulative = -5.17125e-10
PIMPLE: Iteration 2
smoothSolver:  Solving for Ux, Initial residual = 0.00131897, Final residual = 4.79605e-08, No Iterations 1
smoothSolver:  Solving for Uy, Initial residual = 0.00373047, Final residual = 6.60914e-08, No Iterations 1
smoothSolver:  Solving for e, Initial residual = 0.258787, Final residual = 1.22106e-07, No Iterations 2
smoothSolver:  Solving for p, Initial residual = 0.0641626, Final residual = 9.43452e-08, No Iterations 2
diagonal:  Solving for rho, Initial residual = 0, Final residual = 0, No Iterations 0
time step continuity errors : sum local = 1.44005e-09, global = -5.72529e-11, cumulative = -5.74378e-10
ExecutionTime = 4.83 s  ClockTime = 5 s

Time = 0.003

Courant Number mean: 0.0439253 max: 0.105866
diagonal:  Solving for rho, Initial residual = 0, Final residual = 0, No Iterations 0
PIMPLE: Iteration 1
smoothSolver:  Solving for Ux, Initial residual = 0.0455518, Final residual = 1.63656e-06, No Iterations 1
smoothSolver:  Solving for Uy, Initial residual = 0.0863327, Final residual = 2.97116e-06, No Iterations 1
smoothSolver:  Solving for e, Initial residual = 0.180944, Final residual = 1.00834e-07, No Iterations 2
smoothSolver:  Solving for p, Initial residual = 0.264346, Final residual = 3.49047e-07, No Iterations 2
diagonal:  Solving for rho, Initial residual = 0, Final residual = 0, No Iterations 0
time step continuity errors : sum local = 7.65612e-09, global = -5.97861e-10, cumulative = -1.17224e-09
PIMPLE: Iteration 2
smoothSolver:  Solving for Ux, Initial residual = 0.000856262, Final residual = 9.34677e-08, No Iterations 1
smoothSolver:  Solving for Uy, Initial residual = 0.00203728, Final residual = 7.20862e-08, No Iterations 1
smoothSolver:  Solving for e, Initial residual = 0.0945944, Final residual = 5.11794e-08, No Iterations 2
smoothSolver:  Solving for p, Initial residual = 0.0240734, Final residual = 3.22506e-08, No Iterations 2
diagonal:  Solving for rho, Initial residual = 0, Final residual = 0, No Iterations 0
time step continuity errors : sum local = 1.03946e-09, global = -1.06913e-10, cumulative = -1.27915e-09
ExecutionTime = 5.22 s  ClockTime = 6 s

Time = 0.004

Courant Number mean: 0.0449423 max: 0.110945
diagonal:  Solving for rho, Initial residual = 0, Final residual = 0, No Iterations 0
PIMPLE: Iteration 1
smoothSolver:  Solving for Ux, Initial residual = 0.0374609, Final residual = 2.86487e-06, No Iterations 1
smoothSolver:  Solving for Uy, Initial residual = 0.0678573, Final residual = 4.05674e-06, No Iterations 1
smoothSolver:  Solving for e, Initial residual = 0.165911, Final residual = 1.03513e-07, No Iterations 2
smoothSolver:  Solving for p, Initial residual = 0.196887, Final residual = 2.52551e-07, No Iterations 2
diagonal:  Solving for rho, Initial residual = 0, Final residual = 0, No Iterations 0
time step continuity errors : sum local = 1.01722e-08, global = -1.43468e-09, cumulative = -2.71384e-09
PIMPLE: Iteration 2
smoothSolver:  Solving for Ux, Initial residual = 0.000624685, Final residual = 1.0607e-07, No Iterations 1
smoothSolver:  Solving for Uy, Initial residual = 0.00131465, Final residual = 6.91346e-08, No Iterations 1
smoothSolver:  Solving for e, Initial residual = 0.041403, Final residual = 2.54481e-08, No Iterations 2
smoothSolver:  Solving for p, Initial residual = 0.0105963, Final residual = 1.46499e-08, No Iterations 2
diagonal:  Solving for rho, Initial residual = 0, Final residual = 0, No Iterations 0
time step continuity errors : sum local = 7.62923e-10, global = -1.06931e-10, cumulative = -2.82077e-09
ExecutionTime = 5.6 s  ClockTime = 6 s

Time = 0.005

Courant Number mean: 0.0457603 max: 0.115056
diagonal:  Solving for rho, Initial residual = 0, Final residual = 0, No Iterations 0
PIMPLE: Iteration 1
smoothSolver:  Solving for Ux, Initial residual = 0.0322368, Final residual = 3.71766e-06, No Iterations 1
smoothSolver:  Solving for Uy, Initial residual = 0.0562706, Final residual = 4.34757e-06, No Iterations 1
smoothSolver:  Solving for e, Initial residual = 0.140744, Final residual = 1.00386e-07, No Iterations 2
smoothSolver:  Solving for p, Initial residual = 0.151119, Final residual = 1.9759e-07, No Iterations 2
diagonal:  Solving for rho, Initial residual = 0, Final residual = 0, No Iterations 0
time step continuity errors : sum local = 1.21077e-08, global = -1.84677e-09, cumulative = -4.66754e-09
PIMPLE: Iteration 2
smoothSolver:  Solving for Ux, Initial residual = 0.000475097, Final residual = 9.91119e-08, No Iterations 1
smoothSolver:  Solving for Uy, Initial residual = 0.000924722, Final residual = 6.36473e-08, No Iterations 1
smoothSolver:  Solving for e, Initial residual = 0.0177606, Final residual = 8.36905e-06, No Iterations 1
smoothSolver:  Solving for p, Initial residual = 0.00456241, Final residual = 8.13393e-09, No Iterations 2
diagonal:  Solving for rho, Initial residual = 0, Final residual = 0, No Iterations 0
time step continuity errors : sum local = 5.98319e-10, global = -6.86816e-11, cumulative = -4.73622e-09
ExecutionTime = 5.98 s  ClockTime = 7 s

Time = 0.006

Courant Number mean: 0.0463884 max: 0.118204
diagonal:  Solving for rho, Initial residual = 0, Final residual = 0, No Iterations 0
PIMPLE: Iteration 1
smoothSolver:  Solving for Ux, Initial residual = 0.0284396, Final residual = 4.20927e-06, No Iterations 1
smoothSolver:  Solving for Uy, Initial residual = 0.0482478, Final residual = 4.27314e-06, No Iterations 1
smoothSolver:  Solving for e, Initial residual = 0.116904, Final residual = 9.23722e-08, No Iterations 2
smoothSolver:  Solving for p, Initial residual = 0.117453, Final residual = 1.6259e-07, No Iterations 2
diagonal:  Solving for rho, Initial residual = 0, Final residual = 0, No Iterations 0
time step continuity errors : sum local = 1.36721e-08, global = -2.19211e-09, cumulative = -6.92833e-09
PIMPLE: Iteration 2
smoothSolver:  Solving for Ux, Initial residual = 0.000364577, Final residual = 8.31135e-08, No Iterations 1
smoothSolver:  Solving for Uy, Initial residual = 0.000687138, Final residual = 5.68631e-08, No Iterations 1
smoothSolver:  Solving for e, Initial residual = 0.014729, Final residual = 6.77025e-06, No Iterations 1
smoothSolver:  Solving for p, Initial residual = 0.0038714, Final residual = 5.80069e-09, No Iterations 2
diagonal:  Solving for rho, Initial residual = 0, Final residual = 0, No Iterations 0
time step continuity errors : sum local = 5.65265e-10, global = -3.71228e-11, cumulative = -6.96545e-09
ExecutionTime = 6.37 s  ClockTime = 7 s

Time = 0.007

Courant Number mean: 0.0468468 max: 0.12048
diagonal:  Solving for rho, Initial residual = 0, Final residual = 0, No Iterations 0
PIMPLE: Iteration 1
smoothSolver:  Solving for Ux, Initial residual = 0.0254695, Final residual = 4.38422e-06, No Iterations 1
smoothSolver:  Solving for Uy, Initial residual = 0.0423395, Final residual = 4.03185e-06, No Iterations 1
smoothSolver:  Solving for e, Initial residual = 0.0972325, Final residual = 8.00218e-08, No Iterations 2
smoothSolver:  Solving for p, Initial residual = 0.0916424, Final residual = 1.33524e-07, No Iterations 2
diagonal:  Solving for rho, Initial residual = 0, Final residual = 0, No Iterations 0
time step continuity errors : sum local = 1.44365e-08, global = -1.79272e-09, cumulative = -8.75817e-09
PIMPLE: Iteration 2
smoothSolver:  Solving for Ux, Initial residual = 0.000278116, Final residual = 6.48757e-08, No Iterations 1
smoothSolver:  Solving for Uy, Initial residual = 0.000532633, Final residual = 4.99626e-08, No Iterations 1
smoothSolver:  Solving for e, Initial residual = 0.0131036, Final residual = 6.73167e-06, No Iterations 1
smoothSolver:  Solving for p, Initial residual = 0.00328115, Final residual = 5.18295e-09, No Iterations 2
diagonal:  Solving for rho, Initial residual = 0, Final residual = 0, No Iterations 0
time step continuity errors : sum local = 6.29296e-10, global = 2.20085e-11, cumulative = -8.73616e-09
ExecutionTime = 6.74 s  ClockTime = 7 s

Time = 0.008

Courant Number mean: 0.0471807 max: 0.122026
diagonal:  Solving for rho, Initial residual = 0, Final residual = 0, No Iterations 0
PIMPLE: Iteration 1
smoothSolver:  Solving for Ux, Initial residual = 0.0230514, Final residual = 4.31816e-06, No Iterations 1
smoothSolver:  Solving for Uy, Initial residual = 0.0377854, Final residual = 3.73737e-06, No Iterations 1
smoothSolver:  Solving for e, Initial residual = 0.0815226, Final residual = 6.83016e-08, No Iterations 2
smoothSolver:  Solving for p, Initial residual = 0.0731229, Final residual = 1.14893e-07, No Iterations 2
diagonal:  Solving for rho, Initial residual = 0, Final residual = 0, No Iterations 0
time step continuity errors : sum local = 1.51376e-08, global = -2.07755e-09, cumulative = -1.08137e-08
PIMPLE: Iteration 2
smoothSolver:  Solving for Ux, Initial residual = 0.000231444, Final residual = 4.91158e-08, No Iterations 1
smoothSolver:  Solving for Uy, Initial residual = 0.000427692, Final residual = 4.53959e-08, No Iterations 1
smoothSolver:  Solving for e, Initial residual = 0.0139085, Final residual = 7.40795e-06, No Iterations 1
smoothSolver:  Solving for p, Initial residual = 0.00336701, Final residual = 4.98086e-09, No Iterations 2
diagonal:  Solving for rho, Initial residual = 0, Final residual = 0, No Iterations 0
time step continuity errors : sum local = 7.19684e-10, global = 5.16302e-11, cumulative = -1.07621e-08
ExecutionTime = 7.12 s  ClockTime = 8 s

Time = 0.009

Courant Number mean: 0.0474521 max: 0.122999
diagonal:  Solving for rho, Initial residual = 0, Final residual = 0, No Iterations 0
PIMPLE: Iteration 1
smoothSolver:  Solving for Ux, Initial residual = 0.0210398, Final residual = 4.09117e-06, No Iterations 1
smoothSolver:  Solving for Uy, Initial residual = 0.0341778, Final residual = 3.47294e-06, No Iterations 1
smoothSolver:  Solving for e, Initial residual = 0.0687663, Final residual = 5.7163e-08, No Iterations 2
smoothSolver:  Solving for p, Initial residual = 0.0592, Final residual = 1.05661e-07, No Iterations 2
diagonal:  Solving for rho, Initial residual = 0, Final residual = 0, No Iterations 0
time step continuity errors : sum local = 1.62879e-08, global = -1.92017e-09, cumulative = -1.26823e-08
PIMPLE: Iteration 2
smoothSolver:  Solving for Ux, Initial residual = 0.000210069, Final residual = 3.89009e-08, No Iterations 1
smoothSolver:  Solving for Uy, Initial residual = 0.000349684, Final residual = 4.06196e-08, No Iterations 1
smoothSolver:  Solving for e, Initial residual = 0.0130265, Final residual = 7.15751e-06, No Iterations 1
smoothSolver:  Solving for p, Initial residual = 0.00304012, Final residual = 4.52473e-09, No Iterations 2
diagonal:  Solving for rho, Initial residual = 0, Final residual = 0, No Iterations 0
time step continuity errors : sum local = 7.51076e-10, global = 7.30863e-11, cumulative = -1.26092e-08
ExecutionTime = 7.51 s  ClockTime = 8 s

Time = 0.01

Courant Number mean: 0.0476502 max: 0.123553
diagonal:  Solving for rho, Initial residual = 0, Final residual = 0, No Iterations 0
PIMPLE: Iteration 1
smoothSolver:  Solving for Ux, Initial residual = 0.0193316, Final residual = 3.76743e-06, No Iterations 1
smoothSolver:  Solving for Uy, Initial residual = 0.0312474, Final residual = 3.22398e-06, No Iterations 1
smoothSolver:  Solving for e, Initial residual = 0.0584123, Final residual = 4.935e-08, No Iterations 2
smoothSolver:  Solving for p, Initial residual = 0.0485522, Final residual = 9.68868e-08, No Iterations 2
diagonal:  Solving for rho, Initial residual = 0, Final residual = 0, No Iterations 0
time step continuity errors : sum local = 1.69278e-08, global = -1.68866e-09, cumulative = -1.42978e-08
PIMPLE: Iteration 2
smoothSolver:  Solving for Ux, Initial residual = 0.000195603, Final residual = 3.44766e-08, No Iterations 1
smoothSolver:  Solving for Uy, Initial residual = 0.000292453, Final residual = 3.58259e-08, No Iterations 1
smoothSolver:  Solving for e, Initial residual = 0.0110201, Final residual = 6.24207e-06, No Iterations 1
smoothSolver:  Solving for p, Initial residual = 0.00248287, Final residual = 3.84912e-09, No Iterations 2
diagonal:  Solving for rho, Initial residual = 0, Final residual = 0, No Iterations 0
time step continuity errors : sum local = 7.13802e-10, global = 1.08303e-10, cumulative = -1.41895e-08
ExecutionTime = 7.89 s  ClockTime = 8 s

Time = 0.011

Courant Number mean: 0.0477762 max: 0.123824
diagonal:  Solving for rho, Initial residual = 0, Final residual = 0, No Iterations 0
PIMPLE: Iteration 1
smoothSolver:  Solving for Ux, Initial residual = 0.017864, Final residual = 3.39949e-06, No Iterations 1
smoothSolver:  Solving for Uy, Initial residual = 0.0288157, Final residual = 2.98828e-06, No Iterations 1
smoothSolver:  Solving for e, Initial residual = 0.0550649, Final residual = 4.32862e-08, No Iterations 2
smoothSolver:  Solving for p, Initial residual = 0.0420736, Final residual = 9.11361e-08, No Iterations 2
diagonal:  Solving for rho, Initial residual = 0, Final residual = 0, No Iterations 0
time step continuity errors : sum local = 1.75938e-08, global = -1.50443e-09, cumulative = -1.56939e-08
PIMPLE: Iteration 2
smoothSolver:  Solving for Ux, Initial residual = 0.000182618, Final residual = 3.08266e-08, No Iterations 1
smoothSolver:  Solving for Uy, Initial residual = 0.000253975, Final residual = 3.16346e-08, No Iterations 1
smoothSolver:  Solving for e, Initial residual = 0.00900231, Final residual = 4.91434e-06, No Iterations 1
smoothSolver:  Solving for p, Initial residual = 0.00204136, Final residual = 3.29075e-09, No Iterations 2
diagonal:  Solving for rho, Initial residual = 0, Final residual = 0, No Iterations 0
time step continuity errors : sum local = 6.66538e-10, global = 1.2225e-10, cumulative = -1.55717e-08
ExecutionTime = 8.27 s  ClockTime = 9 s

Time = 0.012

Courant Number mean: 0.0478326 max: 0.123918
diagonal:  Solving for rho, Initial residual = 0, Final residual = 0, No Iterations 0
PIMPLE: Iteration 1
smoothSolver:  Solving for Ux, Initial residual = 0.0165897, Final residual = 3.02556e-06, No Iterations 1
smoothSolver:  Solving for Uy, Initial residual = 0.0267672, Final residual = 2.76336e-06, No Iterations 1
smoothSolver:  Solving for e, Initial residual = 0.0532746, Final residual = 3.73307e-08, No Iterations 2
smoothSolver:  Solving for p, Initial residual = 0.039871, Final residual = 8.51462e-08, No Iterations 2
diagonal:  Solving for rho, Initial residual = 0, Final residual = 0, No Iterations 0
time step continuity errors : sum local = 1.77901e-08, global = -1.38205e-09, cumulative = -1.69537e-08
PIMPLE: Iteration 2
smoothSolver:  Solving for Ux, Initial residual = 0.00016942, Final residual = 2.7251e-08, No Iterations 1
smoothSolver:  Solving for Uy, Initial residual = 0.000232331, Final residual = 2.79397e-08, No Iterations 1
smoothSolver:  Solving for e, Initial residual = 0.00903081, Final residual = 4.18137e-06, No Iterations 1
smoothSolver:  Solving for p, Initial residual = 0.00205799, Final residual = 2.85312e-09, No Iterations 2
diagonal:  Solving for rho, Initial residual = 0, Final residual = 0, No Iterations 0
time step continuity errors : sum local = 6.19505e-10, global = 2.16819e-10, cumulative = -1.67369e-08
ExecutionTime = 8.65 s  ClockTime = 9 s

Time = 0.013

Courant Number mean: 0.0478362 max: 0.123919
diagonal:  Solving for rho, Initial residual = 0, Final residual = 0, No Iterations 0
PIMPLE: Iteration 1
smoothSolver:  Solving for Ux, Initial residual = 0.0154891, Final residual = 2.67735e-06, No Iterations 1
smoothSolver:  Solving for Uy, Initial residual = 0.0250151, Final residual = 2.54997e-06, No Iterations 1
smoothSolver:  Solving for e, Initial residual = 0.0504921, Final residual = 3.31656e-08, No Iterations 2
smoothSolver:  Solving for p, Initial residual = 0.0370032, Final residual = 6.13021e-08, No Iterations 2
diagonal:  Solving for rho, Initial residual = 0, Final residual = 0, No Iterations 0
time step continuity errors : sum local = 1.37364e-08, global = -9.5549e-10, cumulative = -1.76924e-08
PIMPLE: Iteration 2
smoothSolver:  Solving for Ux, Initial residual = 0.000154331, Final residual = 2.38429e-08, No Iterations 1
smoothSolver:  Solving for Uy, Initial residual = 0.000215191, Final residual = 2.45762e-08, No Iterations 1
smoothSolver:  Solving for e, Initial residual = 0.00876669, Final residual = 4.01488e-06, No Iterations 1
smoothSolver:  Solving for p, Initial residual = 0.00191724, Final residual = 2.77093e-09, No Iterations 2
diagonal:  Solving for rho, Initial residual = 0, Final residual = 0, No Iterations 0
time step continuity errors : sum local = 6.43029e-10, global = 2.19152e-10, cumulative = -1.74733e-08
ExecutionTime = 9.03 s  ClockTime = 10 s

Time = 0.014

Courant Number mean: 0.0478063 max: 0.123882
diagonal:  Solving for rho, Initial residual = 0, Final residual = 0, No Iterations 0
PIMPLE: Iteration 1
smoothSolver:  Solving for Ux, Initial residual = 0.0145419, Final residual = 2.36576e-06, No Iterations 1
smoothSolver:  Solving for Uy, Initial residual = 0.0234998, Final residual = 2.34994e-06, No Iterations 1
smoothSolver:  Solving for e, Initial residual = 0.0474585, Final residual = 3.02973e-08, No Iterations 2
smoothSolver:  Solving for p, Initial residual = 0.0339078, Final residual = 5.66558e-08, No Iterations 2
diagonal:  Solving for rho, Initial residual = 0, Final residual = 0, No Iterations 0
time step continuity errors : sum local = 1.35241e-08, global = -4.24665e-10, cumulative = -1.78979e-08
PIMPLE: Iteration 2
smoothSolver:  Solving for Ux, Initial residual = 0.000138621, Final residual = 2.04451e-08, No Iterations 1
smoothSolver:  Solving for Uy, Initial residual = 0.000200534, Final residual = 2.10191e-08, No Iterations 1
smoothSolver:  Solving for e, Initial residual = 0.00823804, Final residual = 3.66255e-06, No Iterations 1
smoothSolver:  Solving for p, Initial residual = 0.00175266, Final residual = 2.56256e-09, No Iterations 2
diagonal:  Solving for rho, Initial residual = 0, Final residual = 0, No Iterations 0
time step continuity errors : sum local = 6.31129e-10, global = 1.64847e-10, cumulative = -1.77331e-08
ExecutionTime = 9.42 s  ClockTime = 10 s

Time = 0.015

Courant Number mean: 0.0477444 max: 0.123841
diagonal:  Solving for rho, Initial residual = 0, Final residual = 0, No Iterations 0
PIMPLE: Iteration 1
smoothSolver:  Solving for Ux, Initial residual = 0.0137003, Final residual = 2.09096e-06, No Iterations 1
smoothSolver:  Solving for Uy, Initial residual = 0.0221752, Final residual = 2.1682e-06, No Iterations 1
smoothSolver:  Solving for e, Initial residual = 0.0444467, Final residual = 2.64969e-08, No Iterations 2
smoothSolver:  Solving for p, Initial residual = 0.0313, Final residual = 5.0647e-08, No Iterations 2
diagonal:  Solving for rho, Initial residual = 0, Final residual = 0, No Iterations 0
time step continuity errors : sum local = 1.27869e-08, global = 4.23086e-10, cumulative = -1.731e-08
PIMPLE: Iteration 2
smoothSolver:  Solving for Ux, Initial residual = 0.00012289, Final residual = 1.72507e-08, No Iterations 1
smoothSolver:  Solving for Uy, Initial residual = 0.000189227, Final residual = 1.83635e-08, No Iterations 1
smoothSolver:  Solving for e, Initial residual = 0.00744804, Final residual = 3.27332e-06, No Iterations 1
smoothSolver:  Solving for p, Initial residual = 0.00154114, Final residual = 2.41711e-09, No Iterations 2
diagonal:  Solving for rho, Initial residual = 0, Final residual = 0, No Iterations 0
time step continuity errors : sum local = 6.27349e-10, global = 1.47897e-10, cumulative = -1.71621e-08
ExecutionTime = 9.8 s  ClockTime = 10 s

Time = 0.016

Courant Number mean: 0.0476482 max: 0.123815
diagonal:  Solving for rho, Initial residual = 0, Final residual = 0, No Iterations 0
PIMPLE: Iteration 1
smoothSolver:  Solving for Ux, Initial residual = 0.0130229, Final residual = 1.85388e-06, No Iterations 1
smoothSolver:  Solving for Uy, Initial residual = 0.021013, Final residual = 2.00225e-06, No Iterations 1
smoothSolver:  Solving for e, Initial residual = 0.0419032, Final residual = 2.46219e-08, No Iterations 2
smoothSolver:  Solving for p, Initial residual = 0.0290766, Final residual = 4.85407e-08, No Iterations 2
diagonal:  Solving for rho, Initial residual = 0, Final residual = 0, No Iterations 0
time step continuity errors : sum local = 1.28633e-08, global = 9.47847e-10, cumulative = -1.62143e-08
PIMPLE: Iteration 2
smoothSolver:  Solving for Ux, Initial residual = 0.000108207, Final residual = 1.44016e-08, No Iterations 1
smoothSolver:  Solving for Uy, Initial residual = 0.000180075, Final residual = 1.63416e-08, No Iterations 1
smoothSolver:  Solving for e, Initial residual = 0.00643385, Final residual = 2.86094e-06, No Iterations 1
smoothSolver:  Solving for p, Initial residual = 0.00132027, Final residual = 2.19878e-09, No Iterations 2
diagonal:  Solving for rho, Initial residual = 0, Final residual = 0, No Iterations 0
time step continuity errors : sum local = 5.96968e-10, global = 1.3454e-10, cumulative = -1.60797e-08
ExecutionTime = 10.18 s  ClockTime = 11 s

Time = 0.017

Courant Number mean: 0.0476274 max: 0.123809
diagonal:  Solving for rho, Initial residual = 0, Final residual = 0, No Iterations 0
PIMPLE: Iteration 1
smoothSolver:  Solving for Ux, Initial residual = 0.0124148, Final residual = 1.66062e-06, No Iterations 1
smoothSolver:  Solving for Uy, Initial residual = 0.0199865, Final residual = 1.88449e-06, No Iterations 1
smoothSolver:  Solving for e, Initial residual = 0.039402, Final residual = 2.34115e-08, No Iterations 2
smoothSolver:  Solving for p, Initial residual = 0.0270095, Final residual = 4.57832e-08, No Iterations 2
diagonal:  Solving for rho, Initial residual = 0, Final residual = 0, No Iterations 0
time step continuity errors : sum local = 1.26409e-08, global = 1.29883e-09, cumulative = -1.47809e-08
PIMPLE: Iteration 2
smoothSolver:  Solving for Ux, Initial residual = 9.61173e-05, Final residual = 1.20817e-08, No Iterations 1
smoothSolver:  Solving for Uy, Initial residual = 0.000172251, Final residual = 1.49076e-08, No Iterations 1
smoothSolver:  Solving for e, Initial residual = 0.00526646, Final residual = 2.41575e-06, No Iterations 1
smoothSolver:  Solving for p, Initial residual = 0.00114631, Final residual = 1.94405e-09, No Iterations 2
diagonal:  Solving for rho, Initial residual = 0, Final residual = 0, No Iterations 0
time step continuity errors : sum local = 5.48126e-10, global = 1.23312e-10, cumulative = -1.46576e-08
ExecutionTime = 10.56 s  ClockTime = 11 s

Time = 0.018

Courant Number mean: 0.0476538 max: 0.123823
diagonal:  Solving for rho, Initial residual = 0, Final residual = 0, No Iterations 0
PIMPLE: Iteration 1
smoothSolver:  Solving for Ux, Initial residual = 0.0118903, Final residual = 1.51672e-06, No Iterations 1
smoothSolver:  Solving for Uy, Initial residual = 0.019075, Final residual = 1.80123e-06, No Iterations 1
smoothSolver:  Solving for e, Initial residual = 0.0366278, Final residual = 2.15814e-08, No Iterations 2
smoothSolver:  Solving for p, Initial residual = 0.025099, Final residual = 4.43044e-08, No Iterations 2
diagonal:  Solving for rho, Initial residual = 0, Final residual = 0, No Iterations 0
time step continuity errors : sum local = 1.26576e-08, global = 1.46523e-09, cumulative = -1.31923e-08
PIMPLE: Iteration 2
smoothSolver:  Solving for Ux, Initial residual = 8.53096e-05, Final residual = 1.02181e-08, No Iterations 1
smoothSolver:  Solving for Uy, Initial residual = 0.000165747, Final residual = 1.37725e-08, No Iterations 1
smoothSolver:  Solving for e, Initial residual = 0.00409074, Final residual = 1.93603e-06, No Iterations 1
smoothSolver:  Solving for p, Initial residual = 0.000960175, Final residual = 1.69456e-09, No Iterations 2
diagonal:  Solving for rho, Initial residual = 0, Final residual = 0, No Iterations 0
time step continuity errors : sum local = 4.92948e-10, global = 1.1359e-10, cumulative = -1.30788e-08
ExecutionTime = 10.94 s  ClockTime = 11 s

Time = 0.019

Courant Number mean: 0.0476658 max: 0.12385
diagonal:  Solving for rho, Initial residual = 0, Final residual = 0, No Iterations 0
PIMPLE: Iteration 1
smoothSolver:  Solving for Ux, Initial residual = 0.0114137, Final residual = 1.3885e-06, No Iterations 1
smoothSolver:  Solving for Uy, Initial residual = 0.018262, Final residual = 1.72381e-06, No Iterations 1
smoothSolver:  Solving for e, Initial residual = 0.0340334, Final residual = 2.08562e-08, No Iterations 2
smoothSolver:  Solving for p, Initial residual = 0.0233538, Final residual = 4.33555e-08, No Iterations 2
diagonal:  Solving for rho, Initial residual = 0, Final residual = 0, No Iterations 0
time step continuity errors : sum local = 1.27383e-08, global = 1.58692e-09, cumulative = -1.14918e-08
PIMPLE: Iteration 2
smoothSolver:  Solving for Ux, Initial residual = 7.64156e-05, Final residual = 8.64969e-09, No Iterations 1
smoothSolver:  Solving for Uy, Initial residual = 0.000160178, Final residual = 1.28319e-08, No Iterations 1
smoothSolver:  Solving for e, Initial residual = 0.00412442, Final residual = 1.62016e-06, No Iterations 1
smoothSolver:  Solving for p, Initial residual = 0.000990376, Final residual = 1.53145e-09, No Iterations 2
diagonal:  Solving for rho, Initial residual = 0, Final residual = 0, No Iterations 0
time step continuity errors : sum local = 4.56965e-10, global = 1.01922e-10, cumulative = -1.13899e-08
ExecutionTime = 11.32 s  ClockTime = 12 s

Time = 0.02

Courant Number mean: 0.0476544 max: 0.123882
diagonal:  Solving for rho, Initial residual = 0, Final residual = 0, No Iterations 0
PIMPLE: Iteration 1
smoothSolver:  Solving for Ux, Initial residual = 0.010971, Final residual = 1.27584e-06, No Iterations 1
smoothSolver:  Solving for Uy, Initial residual = 0.0175334, Final residual = 1.64762e-06, No Iterations 1
smoothSolver:  Solving for e, Initial residual = 0.0323529, Final residual = 1.95309e-08, No Iterations 2
smoothSolver:  Solving for p, Initial residual = 0.0225662, Final residual = 4.19747e-08, No Iterations 2
diagonal:  Solving for rho, Initial residual = 0, Final residual = 0, No Iterations 0
time step continuity errors : sum local = 1.26165e-08, global = 1.74789e-09, cumulative = -9.64202e-09
PIMPLE: Iteration 2
smoothSolver:  Solving for Ux, Initial residual = 6.93817e-05, Final residual = 7.36076e-09, No Iterations 1
smoothSolver:  Solving for Uy, Initial residual = 0.000154911, Final residual = 1.19956e-08, No Iterations 1
smoothSolver:  Solving for e, Initial residual = 0.00418219, Final residual = 1.46184e-06, No Iterations 1
smoothSolver:  Solving for p, Initial residual = 0.0010459, Final residual = 1.47971e-09, No Iterations 2
diagonal:  Solving for rho, Initial residual = 0, Final residual = 0, No Iterations 0
time step continuity errors : sum local = 4.5084e-10, global = 8.81999e-11, cumulative = -9.55382e-09
ExecutionTime = 11.7 s  ClockTime = 12 s

Time = 0.021

Courant Number mean: 0.0476201 max: 0.123916
diagonal:  Solving for rho, Initial residual = 0, Final residual = 0, No Iterations 0
PIMPLE: Iteration 1
smoothSolver:  Solving for Ux, Initial residual = 0.0105697, Final residual = 1.18064e-06, No Iterations 1
smoothSolver:  Solving for Uy, Initial residual = 0.0168773, Final residual = 1.57108e-06, No Iterations 1
smoothSolver:  Solving for e, Initial residual = 0.0303085, Final residual = 1.82786e-08, No Iterations 2
smoothSolver:  Solving for p, Initial residual = 0.021568, Final residual = 4.12329e-08, No Iterations 2
diagonal:  Solving for rho, Initial residual = 0, Final residual = 0, No Iterations 0
time step continuity errors : sum local = 1.26391e-08, global = 1.86961e-09, cumulative = -7.68421e-09
PIMPLE: Iteration 2
smoothSolver:  Solving for Ux, Initial residual = 6.30497e-05, Final residual = 6.34486e-09, No Iterations 1
smoothSolver:  Solving for Uy, Initial residual = 0.000149627, Final residual = 1.12335e-08, No Iterations 1
smoothSolver:  Solving for e, Initial residual = 0.00406373, Final residual = 1.47875e-06, No Iterations 1
smoothSolver:  Solving for p, Initial residual = 0.00104748, Final residual = 1.48555e-09, No Iterations 2
diagonal:  Solving for rho, Initial residual = 0, Final residual = 0, No Iterations 0
time step continuity errors : sum local = 4.62869e-10, global = 8.17226e-11, cumulative = -7.60249e-09
ExecutionTime = 12.08 s  ClockTime = 13 s

Time = 0.022

Courant Number mean: 0.0475709 max: 0.123952
diagonal:  Solving for rho, Initial residual = 0, Final residual = 0, No Iterations 0
PIMPLE: Iteration 1
smoothSolver:  Solving for Ux, Initial residual = 0.0101965, Final residual = 1.09126e-06, No Iterations 1
smoothSolver:  Solving for Uy, Initial residual = 0.0162822, Final residual = 1.49543e-06, No Iterations 1
smoothSolver:  Solving for e, Initial residual = 0.0280972, Final residual = 1.72709e-08, No Iterations 2
smoothSolver:  Solving for p, Initial residual = 0.020319, Final residual = 3.97442e-08, No Iterations 2
diagonal:  Solving for rho, Initial residual = 0, Final residual = 0, No Iterations 0
time step continuity errors : sum local = 1.25159e-08, global = 1.99413e-09, cumulative = -5.60836e-09
PIMPLE: Iteration 2
smoothSolver:  Solving for Ux, Initial residual = 5.73571e-05, Final residual = 5.50151e-09, No Iterations 1
smoothSolver:  Solving for Uy, Initial residual = 0.000145026, Final residual = 1.07078e-08, No Iterations 1
smoothSolver:  Solving for e, Initial residual = 0.00376459, Final residual = 1.41355e-06, No Iterations 1
smoothSolver:  Solving for p, Initial residual = 0.00098429, Final residual = 1.46855e-09, No Iterations 2
diagonal:  Solving for rho, Initial residual = 0, Final residual = 0, No Iterations 0
time step continuity errors : sum local = 4.72273e-10, global = 7.81218e-11, cumulative = -5.53023e-09
ExecutionTime = 12.46 s  ClockTime = 13 s

Time = 0.023

Courant Number mean: 0.0475012 max: 0.123996
diagonal:  Solving for rho, Initial residual = 0, Final residual = 0, No Iterations 0
PIMPLE: Iteration 1
smoothSolver:  Solving for Ux, Initial residual = 0.00984784, Final residual = 1.01256e-06, No Iterations 1
smoothSolver:  Solving for Uy, Initial residual = 0.0157394, Final residual = 1.42989e-06, No Iterations 1
smoothSolver:  Solving for e, Initial residual = 0.0263656, Final residual = 1.60841e-08, No Iterations 2
smoothSolver:  Solving for p, Initial residual = 0.0192414, Final residual = 3.71382e-08, No Iterations 2
diagonal:  Solving for rho, Initial residual = 0, Final residual = 0, No Iterations 0
time step continuity errors : sum local = 1.21153e-08, global = 2.16192e-09, cumulative = -3.36831e-09
PIMPLE: Iteration 2
smoothSolver:  Solving for Ux, Initial residual = 5.23199e-05, Final residual = 4.81704e-09, No Iterations 1
smoothSolver:  Solving for Uy, Initial residual = 0.00014134, Final residual = 1.02453e-08, No Iterations 1
smoothSolver:  Solving for e, Initial residual = 0.00343392, Final residual = 1.32561e-06, No Iterations 1
smoothSolver:  Solving for p, Initial residual = 0.000900557, Final residual = 1.48778e-09, No Iterations 2
diagonal:  Solving for rho, Initial residual = 0, Final residual = 0, No Iterations 0
time step continuity errors : sum local = 4.95908e-10, global = 7.85426e-11, cumulative = -3.28977e-09
ExecutionTime = 12.85 s  ClockTime = 13 s

Time = 0.024

Courant Number mean: 0.0474111 max: 0.124051
diagonal:  Solving for rho, Initial residual = 0, Final residual = 0, No Iterations 0
PIMPLE: Iteration 1
smoothSolver:  Solving for Ux, Initial residual = 0.00952854, Final residual = 9.47626e-07, No Iterations 1
smoothSolver:  Solving for Uy, Initial residual = 0.0152419, Final residual = 1.37463e-06, No Iterations 1
smoothSolver:  Solving for e, Initial residual = 0.0248536, Final residual = 9.9341e-06, No Iterations 1
smoothSolver:  Solving for p, Initial residual = 0.0181709, Final residual = 3.54779e-08, No Iterations 2
diagonal:  Solving for rho, Initial residual = 0, Final residual = 0, No Iterations 0
time step continuity errors : sum local = 1.19983e-08, global = 2.41869e-09, cumulative = -8.71078e-10
PIMPLE: Iteration 2
smoothSolver:  Solving for Ux, Initial residual = 4.76623e-05, Final residual = 4.25858e-09, No Iterations 1
smoothSolver:  Solving for Uy, Initial residual = 0.000137881, Final residual = 9.9583e-09, No Iterations 1
smoothSolver:  Solving for e, Initial residual = 0.00294935, Final residual = 1.19706e-06, No Iterations 1
smoothSolver:  Solving for p, Initial residual = 0.000750414, Final residual = 8.88513e-07, No Iterations 1
diagonal:  Solving for rho, Initial residual = 0, Final residual = 0, No Iterations 0
time step continuity errors : sum local = 3.07365e-07, global = 2.3604e-08, cumulative = 2.27329e-08
ExecutionTime = 13.23 s  ClockTime = 14 s

Time = 0.025

Courant Number mean: 0.0473416 max: 0.12412
diagonal:  Solving for rho, Initial residual = 0, Final residual = 0, No Iterations 0
PIMPLE: Iteration 1
smoothSolver:  Solving for Ux, Initial residual = 0.00922849, Final residual = 8.90772e-07, No Iterations 1
smoothSolver:  Solving for Uy, Initial residual = 0.0147855, Final residual = 1.32826e-06, No Iterations 1
smoothSolver:  Solving for e, Initial residual = 0.0235271, Final residual = 9.41803e-06, No Iterations 1
smoothSolver:  Solving for p, Initial residual = 0.0171505, Final residual = 3.14941e-08, No Iterations 2
diagonal:  Solving for rho, Initial residual = 0, Final residual = 0, No Iterations 0
time step continuity errors : sum local = 1.10369e-08, global = 2.59805e-09, cumulative = 2.53309e-08
PIMPLE: Iteration 2
smoothSolver:  Solving for Ux, Initial residual = 4.36311e-05, Final residual = 3.81325e-09, No Iterations 1
smoothSolver:  Solving for Uy, Initial residual = 0.000135219, Final residual = 9.8701e-09, No Iterations 1
smoothSolver:  Solving for e, Initial residual = 0.0024916, Final residual = 1.03953e-06, No Iterations 1
smoothSolver:  Solving for p, Initial residual = 0.000619311, Final residual = 8.06837e-07, No Iterations 1
diagonal:  Solving for rho, Initial residual = 0, Final residual = 0, No Iterations 0
time step continuity errors : sum local = 2.88841e-07, global = 2.06242e-08, cumulative = 4.59552e-08
ExecutionTime = 13.61 s  ClockTime = 14 s

Time = 0.026

Courant Number mean: 0.047366 max: 0.124385
diagonal:  Solving for rho, Initial residual = 0, Final residual = 0, No Iterations 0
PIMPLE: Iteration 1
smoothSolver:  Solving for Ux, Initial residual = 0.0089622, Final residual = 8.40837e-07, No Iterations 1
smoothSolver:  Solving for Uy, Initial residual = 0.0143654, Final residual = 1.29692e-06, No Iterations 1
smoothSolver:  Solving for e, Initial residual = 0.0223606, Final residual = 8.95151e-06, No Iterations 1
smoothSolver:  Solving for p, Initial residual = 0.0162083, Final residual = 3.01279e-08, No Iterations 2
diagonal:  Solving for rho, Initial residual = 0, Final residual = 0, No Iterations 0
time step continuity errors : sum local = 1.09043e-08, global = 2.79185e-09, cumulative = 4.8747e-08
PIMPLE: Iteration 2
smoothSolver:  Solving for Ux, Initial residual = 4.00902e-05, Final residual = 3.47123e-09, No Iterations 1
smoothSolver:  Solving for Uy, Initial residual = 0.000132576, Final residual = 9.89196e-09, No Iterations 1
smoothSolver:  Solving for e, Initial residual = 0.00227159, Final residual = 8.98674e-07, No Iterations 1
smoothSolver:  Solving for p, Initial residual = 0.000560435, Final residual = 7.16281e-07, No Iterations 1
diagonal:  Solving for rho, Initial residual = 0, Final residual = 0, No Iterations 0
time step continuity errors : sum local = 2.64353e-07, global = 2.21357e-08, cumulative = 7.08827e-08
ExecutionTime = 13.99 s  ClockTime = 15 s

Time = 0.027

Courant Number mean: 0.0473935 max: 0.125882
diagonal:  Solving for rho, Initial residual = 0, Final residual = 0, No Iterations 0
PIMPLE: Iteration 1
smoothSolver:  Solving for Ux, Initial residual = 0.00871387, Final residual = 7.97083e-07, No Iterations 1
smoothSolver:  Solving for Uy, Initial residual = 0.0139776, Final residual = 1.27052e-06, No Iterations 1
smoothSolver:  Solving for e, Initial residual = 0.021286, Final residual = 8.43883e-06, No Iterations 1
smoothSolver:  Solving for p, Initial residual = 0.0153245, Final residual = 2.92153e-08, No Iterations 2
diagonal:  Solving for rho, Initial residual = 0, Final residual = 0, No Iterations 0
time step continuity errors : sum local = 1.08812e-08, global = 2.96952e-09, cumulative = 7.38522e-08
PIMPLE: Iteration 2
smoothSolver:  Solving for Ux, Initial residual = 3.75668e-05, Final residual = 3.21412e-09, No Iterations 1
smoothSolver:  Solving for Uy, Initial residual = 0.000130065, Final residual = 9.83813e-09, No Iterations 1
smoothSolver:  Solving for e, Initial residual = 0.00221137, Final residual = 7.9175e-07, No Iterations 1
smoothSolver:  Solving for p, Initial residual = 0.000545229, Final residual = 6.23992e-07, No Iterations 1
diagonal:  Solving for rho, Initial residual = 0, Final residual = 0, No Iterations 0
time step continuity errors : sum local = 2.36585e-07, global = 2.35257e-08, cumulative = 9.73779e-08
ExecutionTime = 14.36 s  ClockTime = 15 s

Time = 0.028

Courant Number mean: 0.0474031 max: 0.127294
diagonal:  Solving for rho, Initial residual = 0, Final residual = 0, No Iterations 0
PIMPLE: Iteration 1
smoothSolver:  Solving for Ux, Initial residual = 0.00849648, Final residual = 7.56136e-07, No Iterations 1
smoothSolver:  Solving for Uy, Initial residual = 0.0136187, Final residual = 1.24022e-06, No Iterations 1
smoothSolver:  Solving for e, Initial residual = 0.020304, Final residual = 7.98639e-06, No Iterations 1
smoothSolver:  Solving for p, Initial residual = 0.0145251, Final residual = 2.83215e-08, No Iterations 2
diagonal:  Solving for rho, Initial residual = 0, Final residual = 0, No Iterations 0
time step continuity errors : sum local = 1.08192e-08, global = 3.14004e-09, cumulative = 1.00518e-07
PIMPLE: Iteration 2
smoothSolver:  Solving for Ux, Initial residual = 3.55615e-05, Final residual = 3.00465e-09, No Iterations 1
smoothSolver:  Solving for Uy, Initial residual = 0.000127398, Final residual = 9.73876e-09, No Iterations 1
smoothSolver:  Solving for e, Initial residual = 0.00216408, Final residual = 7.27796e-07, No Iterations 1
smoothSolver:  Solving for p, Initial residual = 0.00053503, Final residual = 5.75549e-07, No Iterations 1
diagonal:  Solving for rho, Initial residual = 0, Final residual = 0, No Iterations 0
time step continuity errors : sum local = 2.23494e-07, global = 2.49032e-08, cumulative = 1.25421e-07
ExecutionTime = 14.74 s  ClockTime = 15 s

Time = 0.029

Courant Number mean: 0.0473893 max: 0.12863
diagonal:  Solving for rho, Initial residual = 0, Final residual = 0, No Iterations 0
PIMPLE: Iteration 1
smoothSolver:  Solving for Ux, Initial residual = 0.00828867, Final residual = 7.17008e-07, No Iterations 1
smoothSolver:  Solving for Uy, Initial residual = 0.0132856, Final residual = 1.20624e-06, No Iterations 1
smoothSolver:  Solving for e, Initial residual = 0.0194921, Final residual = 7.61675e-06, No Iterations 1
smoothSolver:  Solving for p, Initial residual = 0.0137321, Final residual = 2.75601e-08, No Iterations 2
diagonal:  Solving for rho, Initial residual = 0, Final residual = 0, No Iterations 0
time step continuity errors : sum local = 1.07679e-08, global = 3.25877e-09, cumulative = 1.2868e-07
PIMPLE: Iteration 2
smoothSolver:  Solving for Ux, Initial residual = 3.36468e-05, Final residual = 2.81125e-09, No Iterations 1
smoothSolver:  Solving for Uy, Initial residual = 0.000124887, Final residual = 9.68197e-09, No Iterations 1
smoothSolver:  Solving for e, Initial residual = 0.00209458, Final residual = 7.03672e-07, No Iterations 1
smoothSolver:  Solving for p, Initial residual = 0.000519843, Final residual = 5.58385e-07, No Iterations 1
diagonal:  Solving for rho, Initial residual = 0, Final residual = 0, No Iterations 0
time step continuity errors : sum local = 2.21487e-07, global = 2.23536e-08, cumulative = 1.51034e-07
ExecutionTime = 15.12 s  ClockTime = 16 s

Time = 0.03

Courant Number mean: 0.0473661 max: 0.129902
diagonal:  Solving for rho, Initial residual = 0, Final residual = 0, No Iterations 0
PIMPLE: Iteration 1
smoothSolver:  Solving for Ux, Initial residual = 0.0080966, Final residual = 6.80571e-07, No Iterations 1
smoothSolver:  Solving for Uy, Initial residual = 0.012974, Final residual = 1.17441e-06, No Iterations 1
smoothSolver:  Solving for e, Initial residual = 0.0187285, Final residual = 7.33081e-06, No Iterations 1
smoothSolver:  Solving for p, Initial residual = 0.0131038, Final residual = 2.6823e-08, No Iterations 2
diagonal:  Solving for rho, Initial residual = 0, Final residual = 0, No Iterations 0
time step continuity errors : sum local = 1.06917e-08, global = 3.40098e-09, cumulative = 1.54435e-07
PIMPLE: Iteration 2
smoothSolver:  Solving for Ux, Initial residual = 3.17666e-05, Final residual = 2.62516e-09, No Iterations 1
smoothSolver:  Solving for Uy, Initial residual = 0.000122425, Final residual = 9.59557e-09, No Iterations 1
smoothSolver:  Solving for e, Initial residual = 0.0019647, Final residual = 6.66112e-07, No Iterations 1
smoothSolver:  Solving for p, Initial residual = 0.00049226, Final residual = 5.57357e-07, No Iterations 1
diagonal:  Solving for rho, Initial residual = 0, Final residual = 0, No Iterations 0
time step continuity errors : sum local = 2.25304e-07, global = 2.02231e-08, cumulative = 1.74658e-07
ExecutionTime = 15.49 s  ClockTime = 16 s

Time = 0.031

Courant Number mean: 0.0473265 max: 0.131121
diagonal:  Solving for rho, Initial residual = 0, Final residual = 0, No Iterations 0
PIMPLE: Iteration 1
smoothSolver:  Solving for Ux, Initial residual = 0.00791408, Final residual = 6.48014e-07, No Iterations 1
smoothSolver:  Solving for Uy, Initial residual = 0.0126823, Final residual = 1.14201e-06, No Iterations 1
smoothSolver:  Solving for e, Initial residual = 0.0182236, Final residual = 7.04013e-06, No Iterations 1
smoothSolver:  Solving for p, Initial residual = 0.0127591, Final residual = 2.63289e-08, No Iterations 2
diagonal:  Solving for rho, Initial residual = 0, Final residual = 0, No Iterations 0
time step continuity errors : sum local = 1.06837e-08, global = 3.5952e-09, cumulative = 1.78253e-07
PIMPLE: Iteration 2
smoothSolver:  Solving for Ux, Initial residual = 3.00072e-05, Final residual = 2.45826e-09, No Iterations 1
smoothSolver:  Solving for Uy, Initial residual = 0.000119943, Final residual = 9.46109e-09, No Iterations 1
smoothSolver:  Solving for e, Initial residual = 0.00175871, Final residual = 6.25209e-07, No Iterations 1
smoothSolver:  Solving for p, Initial residual = 0.00044113, Final residual = 5.42484e-07, No Iterations 1
diagonal:  Solving for rho, Initial residual = 0, Final residual = 0, No Iterations 0
time step continuity errors : sum local = 2.23014e-07, global = 1.98649e-08, cumulative = 1.98118e-07
ExecutionTime = 15.87 s  ClockTime = 16 s

Time = 0.032

Courant Number mean: 0.0472662 max: 0.132295
diagonal:  Solving for rho, Initial residual = 0, Final residual = 0, No Iterations 0
PIMPLE: Iteration 1
smoothSolver:  Solving for Ux, Initial residual = 0.00773867, Final residual = 6.19694e-07, No Iterations 1
smoothSolver:  Solving for Uy, Initial residual = 0.0124084, Final residual = 1.10859e-06, No Iterations 1
smoothSolver:  Solving for e, Initial residual = 0.0176844, Final residual = 6.76203e-06, No Iterations 1
smoothSolver:  Solving for p, Initial residual = 0.0124081, Final residual = 2.58545e-08, No Iterations 2
diagonal:  Solving for rho, Initial residual = 0, Final residual = 0, No Iterations 0
time step continuity errors : sum local = 1.06603e-08, global = 3.86496e-09, cumulative = 2.01983e-07
PIMPLE: Iteration 2
smoothSolver:  Solving for Ux, Initial residual = 2.84195e-05, Final residual = 2.32528e-09, No Iterations 1
smoothSolver:  Solving for Uy, Initial residual = 0.000117714, Final residual = 9.29212e-09, No Iterations 1
smoothSolver:  Solving for e, Initial residual = 0.00153622, Final residual = 5.70958e-07, No Iterations 1
smoothSolver:  Solving for p, Initial residual = 0.000394006, Final residual = 5.1516e-07, No Iterations 1
diagonal:  Solving for rho, Initial residual = 0, Final residual = 0, No Iterations 0
time step continuity errors : sum local = 2.15005e-07, global = 2.18058e-08, cumulative = 2.23788e-07
ExecutionTime = 16.24 s  ClockTime = 17 s

Time = 0.033

Courant Number mean: 0.0471889 max: 0.133431
diagonal:  Solving for rho, Initial residual = 0, Final residual = 0, No Iterations 0
PIMPLE: Iteration 1
smoothSolver:  Solving for Ux, Initial residual = 0.00756934, Final residual = 5.92874e-07, No Iterations 1
smoothSolver:  Solving for Uy, Initial residual = 0.0121516, Final residual = 1.07766e-06, No Iterations 1
smoothSolver:  Solving for e, Initial residual = 0.0171585, Final residual = 6.51375e-06, No Iterations 1
smoothSolver:  Solving for p, Initial residual = 0.0120267, Final residual = 2.5472e-08, No Iterations 2
diagonal:  Solving for rho, Initial residual = 0, Final residual = 0, No Iterations 0
time step continuity errors : sum local = 1.06557e-08, global = 4.16287e-09, cumulative = 2.27951e-07
PIMPLE: Iteration 2
smoothSolver:  Solving for Ux, Initial residual = 2.70454e-05, Final residual = 2.25251e-09, No Iterations 1
smoothSolver:  Solving for Uy, Initial residual = 0.00011566, Final residual = 9.1004e-09, No Iterations 1
smoothSolver:  Solving for e, Initial residual = 0.00137825, Final residual = 5.06378e-07, No Iterations 1
smoothSolver:  Solving for p, Initial residual = 0.000358703, Final residual = 4.77906e-07, No Iterations 1
diagonal:  Solving for rho, Initial residual = 0, Final residual = 0, No Iterations 0
time step continuity errors : sum local = 2.02223e-07, global = 2.39901e-08, cumulative = 2.51941e-07
ExecutionTime = 16.62 s  ClockTime = 17 s

Time = 0.034

Courant Number mean: 0.0471331 max: 0.13453
diagonal:  Solving for rho, Initial residual = 0, Final residual = 0, No Iterations 0
PIMPLE: Iteration 1
smoothSolver:  Solving for Ux, Initial residual = 0.00741254, Final residual = 5.67742e-07, No Iterations 1
smoothSolver:  Solving for Uy, Initial residual = 0.0119102, Final residual = 1.04831e-06, No Iterations 1
smoothSolver:  Solving for e, Initial residual = 0.0166227, Final residual = 6.25493e-06, No Iterations 1
smoothSolver:  Solving for p, Initial residual = 0.0115784, Final residual = 2.50764e-08, No Iterations 2
diagonal:  Solving for rho, Initial residual = 0, Final residual = 0, No Iterations 0
time step continuity errors : sum local = 1.06314e-08, global = 4.36601e-09, cumulative = 2.56307e-07
PIMPLE: Iteration 2
smoothSolver:  Solving for Ux, Initial residual = 2.52277e-05, Final residual = 2.19149e-09, No Iterations 1
smoothSolver:  Solving for Uy, Initial residual = 0.000113999, Final residual = 8.9921e-09, No Iterations 1
smoothSolver:  Solving for e, Initial residual = 0.00132184, Final residual = 4.61101e-07, No Iterations 1
smoothSolver:  Solving for p, Initial residual = 0.000331356, Final residual = 4.42506e-07, No Iterations 1
diagonal:  Solving for rho, Initial residual = 0, Final residual = 0, No Iterations 0
time step continuity errors : sum local = 1.89711e-07, global = 2.58221e-08, cumulative = 2.8213e-07
ExecutionTime = 16.99 s  ClockTime = 18 s

Time = 0.035

Courant Number mean: 0.0471319 max: 0.135595
diagonal:  Solving for rho, Initial residual = 0, Final residual = 0, No Iterations 0
PIMPLE: Iteration 1
smoothSolver:  Solving for Ux, Initial residual = 0.0072657, Final residual = 5.44235e-07, No Iterations 1
smoothSolver:  Solving for Uy, Initial residual = 0.0116827, Final residual = 1.02626e-06, No Iterations 1
smoothSolver:  Solving for e, Initial residual = 0.0160764, Final residual = 6.07457e-06, No Iterations 1
smoothSolver:  Solving for p, Initial residual = 0.0111392, Final residual = 2.47948e-08, No Iterations 2
diagonal:  Solving for rho, Initial residual = 0, Final residual = 0, No Iterations 0
time step continuity errors : sum local = 1.06458e-08, global = 4.65652e-09, cumulative = 2.86786e-07
PIMPLE: Iteration 2
smoothSolver:  Solving for Ux, Initial residual = 2.35619e-05, Final residual = 2.14282e-09, No Iterations 1
smoothSolver:  Solving for Uy, Initial residual = 0.000112493, Final residual = 8.93633e-09, No Iterations 1
smoothSolver:  Solving for e, Initial residual = 0.00132075, Final residual = 4.29501e-07, No Iterations 1
smoothSolver:  Solving for p, Initial residual = 0.000335695, Final residual = 4.05384e-07, No Iterations 1
diagonal:  Solving for rho, Initial residual = 0, Final residual = 0, No Iterations 0
time step continuity errors : sum local = 1.75974e-07, global = 2.74421e-08, cumulative = 3.14228e-07
ExecutionTime = 17.36 s  ClockTime = 18 s

Time = 0.036

Courant Number mean: 0.0471174 max: 0.136627
diagonal:  Solving for rho, Initial residual = 0, Final residual = 0, No Iterations 0
PIMPLE: Iteration 1
smoothSolver:  Solving for Ux, Initial residual = 0.00712626, Final residual = 5.22134e-07, No Iterations 1
smoothSolver:  Solving for Uy, Initial residual = 0.0114681, Final residual = 1.00818e-06, No Iterations 1
smoothSolver:  Solving for e, Initial residual = 0.0155178, Final residual = 5.82982e-06, No Iterations 1
smoothSolver:  Solving for p, Initial residual = 0.0106729, Final residual = 2.44053e-08, No Iterations 2
diagonal:  Solving for rho, Initial residual = 0, Final residual = 0, No Iterations 0
time step continuity errors : sum local = 1.06085e-08, global = 4.99498e-09, cumulative = 3.19223e-07
PIMPLE: Iteration 2
smoothSolver:  Solving for Ux, Initial residual = 2.29109e-05, Final residual = 2.09029e-09, No Iterations 1
smoothSolver:  Solving for Uy, Initial residual = 0.000111114, Final residual = 8.8841e-09, No Iterations 1
smoothSolver:  Solving for e, Initial residual = 0.00129866, Final residual = 4.12864e-07, No Iterations 1
smoothSolver:  Solving for p, Initial residual = 0.000332882, Final residual = 3.71536e-07, No Iterations 1
diagonal:  Solving for rho, Initial residual = 0, Final residual = 0, No Iterations 0
time step continuity errors : sum local = 1.6325e-07, global = 2.81957e-08, cumulative = 3.47419e-07
ExecutionTime = 17.74 s  ClockTime = 18 s

Time = 0.037

Courant Number mean: 0.047094 max: 0.137626
diagonal:  Solving for rho, Initial residual = 0, Final residual = 0, No Iterations 0
PIMPLE: Iteration 1
smoothSolver:  Solving for Ux, Initial residual = 0.00699161, Final residual = 5.01233e-07, No Iterations 1
smoothSolver:  Solving for Uy, Initial residual = 0.0112652, Final residual = 9.89385e-07, No Iterations 1
smoothSolver:  Solving for e, Initial residual = 0.0149377, Final residual = 5.61118e-06, No Iterations 1
smoothSolver:  Solving for p, Initial residual = 0.010174, Final residual = 2.43606e-08, No Iterations 2
diagonal:  Solving for rho, Initial residual = 0, Final residual = 0, No Iterations 0
time step continuity errors : sum local = 1.07334e-08, global = 5.21374e-09, cumulative = 3.52633e-07
PIMPLE: Iteration 2
smoothSolver:  Solving for Ux, Initial residual = 2.21274e-05, Final residual = 2.03371e-09, No Iterations 1
smoothSolver:  Solving for Uy, Initial residual = 0.000109842, Final residual = 8.87302e-09, No Iterations 1
smoothSolver:  Solving for e, Initial residual = 0.00125348, Final residual = 4.04193e-07, No Iterations 1
smoothSolver:  Solving for p, Initial residual = 0.000322539, Final residual = 3.51398e-07, No Iterations 1
diagonal:  Solving for rho, Initial residual = 0, Final residual = 0, No Iterations 0
time step continuity errors : sum local = 1.56344e-07, global = 2.93897e-08, cumulative = 3.82022e-07
ExecutionTime = 18.12 s  ClockTime = 19 s

Time = 0.038

Courant Number mean: 0.0470752 max: 0.13859
diagonal:  Solving for rho, Initial residual = 0, Final residual = 0, No Iterations 0
PIMPLE: Iteration 1
smoothSolver:  Solving for Ux, Initial residual = 0.00686271, Final residual = 4.81572e-07, No Iterations 1
smoothSolver:  Solving for Uy, Initial residual = 0.0110732, Final residual = 9.73381e-07, No Iterations 1
smoothSolver:  Solving for e, Initial residual = 0.0144221, Final residual = 5.38912e-06, No Iterations 1
smoothSolver:  Solving for p, Initial residual = 0.00973852, Final residual = 2.42988e-08, No Iterations 2
diagonal:  Solving for rho, Initial residual = 0, Final residual = 0, No Iterations 0
time step continuity errors : sum local = 1.08503e-08, global = 5.57896e-09, cumulative = 3.87601e-07
PIMPLE: Iteration 2
smoothSolver:  Solving for Ux, Initial residual = 2.1296e-05, Final residual = 1.97411e-09, No Iterations 1
smoothSolver:  Solving for Uy, Initial residual = 0.000108711, Final residual = 8.84514e-09, No Iterations 1
smoothSolver:  Solving for e, Initial residual = 0.00118891, Final residual = 3.90086e-07, No Iterations 1
smoothSolver:  Solving for p, Initial residual = 0.000304744, Final residual = 3.43376e-07, No Iterations 1
diagonal:  Solving for rho, Initial residual = 0, Final residual = 0, No Iterations 0
time step continuity errors : sum local = 1.55002e-07, global = 2.89966e-08, cumulative = 4.16598e-07
ExecutionTime = 18.49 s  ClockTime = 19 s

Time = 0.039

Courant Number mean: 0.0470486 max: 0.13952
diagonal:  Solving for rho, Initial residual = 0, Final residual = 0, No Iterations 0
PIMPLE: Iteration 1
smoothSolver:  Solving for Ux, Initial residual = 0.00674157, Final residual = 4.65051e-07, No Iterations 1
smoothSolver:  Solving for Uy, Initial residual = 0.0108912, Final residual = 9.56134e-07, No Iterations 1
smoothSolver:  Solving for e, Initial residual = 0.0140981, Final residual = 5.17307e-06, No Iterations 1
smoothSolver:  Solving for p, Initial residual = 0.00957104, Final residual = 2.43199e-08, No Iterations 2
diagonal:  Solving for rho, Initial residual = 0, Final residual = 0, No Iterations 0
time step continuity errors : sum local = 1.10134e-08, global = 5.92542e-09, cumulative = 4.22523e-07
PIMPLE: Iteration 2
smoothSolver:  Solving for Ux, Initial residual = 2.05365e-05, Final residual = 1.91223e-09, No Iterations 1
smoothSolver:  Solving for Uy, Initial residual = 0.000107745, Final residual = 8.80639e-09, No Iterations 1
smoothSolver:  Solving for e, Initial residual = 0.00112338, Final residual = 3.71045e-07, No Iterations 1
smoothSolver:  Solving for p, Initial residual = 0.000286392, Final residual = 3.34947e-07, No Iterations 1
diagonal:  Solving for rho, Initial residual = 0, Final residual = 0, No Iterations 0
time step continuity errors : sum local = 1.53574e-07, global = 2.97553e-08, cumulative = 4.52279e-07
ExecutionTime = 18.87 s  ClockTime = 19 s

Time = 0.04

Courant Number mean: 0.0470117 max: 0.140416
diagonal:  Solving for rho, Initial residual = 0, Final residual = 0, No Iterations 0
PIMPLE: Iteration 1
smoothSolver:  Solving for Ux, Initial residual = 0.00662405, Final residual = 4.48916e-07, No Iterations 1
smoothSolver:  Solving for Uy, Initial residual = 0.0107192, Final residual = 9.37779e-07, No Iterations 1
smoothSolver:  Solving for e, Initial residual = 0.0138801, Final residual = 5.00539e-06, No Iterations 1
smoothSolver:  Solving for p, Initial residual = 0.00935677, Final residual = 2.41047e-08, No Iterations 2
diagonal:  Solving for rho, Initial residual = 0, Final residual = 0, No Iterations 0
time step continuity errors : sum local = 1.10985e-08, global = 6.07487e-09, cumulative = 4.58353e-07
PIMPLE: Iteration 2
smoothSolver:  Solving for Ux, Initial residual = 1.9915e-05, Final residual = 1.84993e-09, No Iterations 1
smoothSolver:  Solving for Uy, Initial residual = 0.000106967, Final residual = 8.76036e-09, No Iterations 1
smoothSolver:  Solving for e, Initial residual = 0.00105581, Final residual = 3.54603e-07, No Iterations 1
smoothSolver:  Solving for p, Initial residual = 0.000267658, Final residual = 3.2324e-07, No Iterations 1
diagonal:  Solving for rho, Initial residual = 0, Final residual = 0, No Iterations 0
time step continuity errors : sum local = 1.51043e-07, global = 3.03264e-08, cumulative = 4.8868e-07
ExecutionTime = 19.25 s  ClockTime = 20 s

Time = 0.041

Courant Number mean: 0.046965 max: 0.14128
diagonal:  Solving for rho, Initial residual = 0, Final residual = 0, No Iterations 0
PIMPLE: Iteration 1
smoothSolver:  Solving for Ux, Initial residual = 0.00651194, Final residual = 4.33134e-07, No Iterations 1
smoothSolver:  Solving for Uy, Initial residual = 0.0105561, Final residual = 9.18902e-07, No Iterations 1
smoothSolver:  Solving for e, Initial residual = 0.013582, Final residual = 4.86634e-06, No Iterations 1
smoothSolver:  Solving for p, Initial residual = 0.00909831, Final residual = 2.408e-08, No Iterations 2
diagonal:  Solving for rho, Initial residual = 0, Final residual = 0, No Iterations 0
time step continuity errors : sum local = 1.12935e-08, global = 6.4058e-09, cumulative = 4.95086e-07
PIMPLE: Iteration 2
smoothSolver:  Solving for Ux, Initial residual = 1.93464e-05, Final residual = 1.7933e-09, No Iterations 1
smoothSolver:  Solving for Uy, Initial residual = 0.000106573, Final residual = 8.70518e-09, No Iterations 1
smoothSolver:  Solving for e, Initial residual = 0.000979374, Final residual = 3.35083e-07, No Iterations 1
smoothSolver:  Solving for p, Initial residual = 0.000246899, Final residual = 3.1104e-07, No Iterations 1
diagonal:  Solving for rho, Initial residual = 0, Final residual = 0, No Iterations 0
time step continuity errors : sum local = 1.48018e-07, global = 3.16505e-08, cumulative = 5.26736e-07
ExecutionTime = 19.62 s  ClockTime = 20 s

Time = 0.042

Courant Number mean: 0.0469122 max: 0.142001
diagonal:  Solving for rho, Initial residual = 0, Final residual = 0, No Iterations 0
PIMPLE: Iteration 1
smoothSolver:  Solving for Ux, Initial residual = 0.00640378, Final residual = 4.1771e-07, No Iterations 1
smoothSolver:  Solving for Uy, Initial residual = 0.0104016, Final residual = 9.01276e-07, No Iterations 1
smoothSolver:  Solving for e, Initial residual = 0.0132765, Final residual = 4.74271e-06, No Iterations 1
smoothSolver:  Solving for p, Initial residual = 0.00882144, Final residual = 2.42335e-08, No Iterations 2
diagonal:  Solving for rho, Initial residual = 0, Final residual = 0, No Iterations 0
time step continuity errors : sum local = 1.15709e-08, global = 6.81569e-09, cumulative = 5.33552e-07
PIMPLE: Iteration 2
smoothSolver:  Solving for Ux, Initial residual = 1.87758e-05, Final residual = 1.73592e-09, No Iterations 1
smoothSolver:  Solving for Uy, Initial residual = 0.00010654, Final residual = 8.62819e-09, No Iterations 1
smoothSolver:  Solving for e, Initial residual = 0.000907818, Final residual = 3.17851e-07, No Iterations 1
smoothSolver:  Solving for p, Initial residual = 0.000224692, Final residual = 2.90565e-07, No Iterations 1
diagonal:  Solving for rho, Initial residual = 0, Final residual = 0, No Iterations 0
time step continuity errors : sum local = 1.40836e-07, global = 3.3275e-08, cumulative = 5.66827e-07
ExecutionTime = 19.99 s  ClockTime = 21 s

Time = 0.043

Courant Number mean: 0.0468556 max: 0.142688
diagonal:  Solving for rho, Initial residual = 0, Final residual = 0, No Iterations 0
PIMPLE: Iteration 1
smoothSolver:  Solving for Ux, Initial residual = 0.00630226, Final residual = 4.03028e-07, No Iterations 1
smoothSolver:  Solving for Uy, Initial residual = 0.0102549, Final residual = 8.82206e-07, No Iterations 1
smoothSolver:  Solving for e, Initial residual = 0.0129424, Final residual = 4.64978e-06, No Iterations 1
smoothSolver:  Solving for p, Initial residual = 0.00850863, Final residual = 2.40379e-08, No Iterations 2
diagonal:  Solving for rho, Initial residual = 0, Final residual = 0, No Iterations 0
time step continuity errors : sum local = 1.16858e-08, global = 7.21319e-09, cumulative = 5.7404e-07
PIMPLE: Iteration 2
smoothSolver:  Solving for Ux, Initial residual = 1.83109e-05, Final residual = 1.67723e-09, No Iterations 1
smoothSolver:  Solving for Uy, Initial residual = 0.000106584, Final residual = 8.54766e-09, No Iterations 1
smoothSolver:  Solving for e, Initial residual = 0.000875851, Final residual = 3.01432e-07, No Iterations 1
smoothSolver:  Solving for p, Initial residual = 0.00021162, Final residual = 2.73922e-07, No Iterations 1
diagonal:  Solving for rho, Initial residual = 0, Final residual = 0, No Iterations 0
time step continuity errors : sum local = 1.35149e-07, global = 3.32651e-08, cumulative = 6.07305e-07
ExecutionTime = 20.36 s  ClockTime = 21 s

Time = 0.044

Courant Number mean: 0.046843 max: 0.143367
diagonal:  Solving for rho, Initial residual = 0, Final residual = 0, No Iterations 0
PIMPLE: Iteration 1
smoothSolver:  Solving for Ux, Initial residual = 0.0062034, Final residual = 3.88557e-07, No Iterations 1
smoothSolver:  Solving for Uy, Initial residual = 0.0101151, Final residual = 8.62927e-07, No Iterations 1
smoothSolver:  Solving for e, Initial residual = 0.0125947, Final residual = 4.56219e-06, No Iterations 1
smoothSolver:  Solving for p, Initial residual = 0.00818042, Final residual = 2.4115e-08, No Iterations 2
diagonal:  Solving for rho, Initial residual = 0, Final residual = 0, No Iterations 0
time step continuity errors : sum local = 1.19297e-08, global = 7.51868e-09, cumulative = 6.14824e-07
PIMPLE: Iteration 2
smoothSolver:  Solving for Ux, Initial residual = 1.79848e-05, Final residual = 1.62215e-09, No Iterations 1
smoothSolver:  Solving for Uy, Initial residual = 0.000106741, Final residual = 8.52536e-09, No Iterations 1
smoothSolver:  Solving for e, Initial residual = 0.000831812, Final residual = 2.90256e-07, No Iterations 1
smoothSolver:  Solving for p, Initial residual = 0.000202723, Final residual = 2.57295e-07, No Iterations 1
diagonal:  Solving for rho, Initial residual = 0, Final residual = 0, No Iterations 0
time step continuity errors : sum local = 1.2915e-07, global = 3.39038e-08, cumulative = 6.48728e-07
ExecutionTime = 20.75 s  ClockTime = 21 s

Time = 0.045

Courant Number mean: 0.0468427 max: 0.144054
diagonal:  Solving for rho, Initial residual = 0, Final residual = 0, No Iterations 0
PIMPLE: Iteration 1
smoothSolver:  Solving for Ux, Initial residual = 0.00610831, Final residual = 3.74409e-07, No Iterations 1
smoothSolver:  Solving for Uy, Initial residual = 0.00998187, Final residual = 8.46957e-07, No Iterations 1
smoothSolver:  Solving for e, Initial residual = 0.0122361, Final residual = 4.44908e-06, No Iterations 1
smoothSolver:  Solving for p, Initial residual = 0.00784154, Final residual = 2.43575e-08, No Iterations 2
diagonal:  Solving for rho, Initial residual = 0, Final residual = 0, No Iterations 0
time step continuity errors : sum local = 1.22558e-08, global = 7.9167e-09, cumulative = 6.56644e-07
PIMPLE: Iteration 2
smoothSolver:  Solving for Ux, Initial residual = 1.79013e-05, Final residual = 1.57511e-09, No Iterations 1
smoothSolver:  Solving for Uy, Initial residual = 0.000106989, Final residual = 8.54243e-09, No Iterations 1
smoothSolver:  Solving for e, Initial residual = 0.000785667, Final residual = 2.76914e-07, No Iterations 1
smoothSolver:  Solving for p, Initial residual = 0.00019277, Final residual = 2.40276e-07, No Iterations 1
diagonal:  Solving for rho, Initial residual = 0, Final residual = 0, No Iterations 0
time step continuity errors : sum local = 1.22648e-07, global = 3.32676e-08, cumulative = 6.89912e-07
ExecutionTime = 21.12 s  ClockTime = 22 s

Time = 0.046

Courant Number mean: 0.0468328 max: 0.144757
diagonal:  Solving for rho, Initial residual = 0, Final residual = 0, No Iterations 0
PIMPLE: Iteration 1
smoothSolver:  Solving for Ux, Initial residual = 0.00601692, Final residual = 3.61496e-07, No Iterations 1
smoothSolver:  Solving for Uy, Initial residual = 0.00985491, Final residual = 8.32693e-07, No Iterations 1
smoothSolver:  Solving for e, Initial residual = 0.0118727, Final residual = 4.35354e-06, No Iterations 1
smoothSolver:  Solving for p, Initial residual = 0.00754124, Final residual = 2.46826e-08, No Iterations 2
diagonal:  Solving for rho, Initial residual = 0, Final residual = 0, No Iterations 0
time step continuity errors : sum local = 1.26269e-08, global = 8.30806e-09, cumulative = 6.9822e-07
PIMPLE: Iteration 2
smoothSolver:  Solving for Ux, Initial residual = 1.78812e-05, Final residual = 1.54163e-09, No Iterations 1
smoothSolver:  Solving for Uy, Initial residual = 0.000107314, Final residual = 8.57029e-09, No Iterations 1
smoothSolver:  Solving for e, Initial residual = 0.000732941, Final residual = 2.64458e-07, No Iterations 1
smoothSolver:  Solving for p, Initial residual = 0.000179551, Final residual = 2.2161e-07, No Iterations 1
diagonal:  Solving for rho, Initial residual = 0, Final residual = 0, No Iterations 0
time step continuity errors : sum local = 1.15051e-07, global = 3.27827e-08, cumulative = 7.31003e-07
ExecutionTime = 21.5 s  ClockTime = 22 s

Time = 0.047

Courant Number mean: 0.0468133 max: 0.145475
diagonal:  Solving for rho, Initial residual = 0, Final residual = 0, No Iterations 0
PIMPLE: Iteration 1
smoothSolver:  Solving for Ux, Initial residual = 0.00592774, Final residual = 3.50622e-07, No Iterations 1
smoothSolver:  Solving for Uy, Initial residual = 0.00973403, Final residual = 8.19711e-07, No Iterations 1
smoothSolver:  Solving for e, Initial residual = 0.011639, Final residual = 4.28062e-06, No Iterations 1
smoothSolver:  Solving for p, Initial residual = 0.00737257, Final residual = 2.49941e-08, No Iterations 2
diagonal:  Solving for rho, Initial residual = 0, Final residual = 0, No Iterations 0
time step continuity errors : sum local = 1.30025e-08, global = 8.74129e-09, cumulative = 7.39744e-07
PIMPLE: Iteration 2
smoothSolver:  Solving for Ux, Initial residual = 1.81741e-05, Final residual = 1.51368e-09, No Iterations 1
smoothSolver:  Solving for Uy, Initial residual = 0.000107705, Final residual = 8.59121e-09, No Iterations 1
smoothSolver:  Solving for e, Initial residual = 0.0006708, Final residual = 2.48309e-07, No Iterations 1
smoothSolver:  Solving for p, Initial residual = 0.000163363, Final residual = 2.06478e-07, No Iterations 1
diagonal:  Solving for rho, Initial residual = 0, Final residual = 0, No Iterations 0
time step continuity errors : sum local = 1.09006e-07, global = 3.27539e-08, cumulative = 7.72498e-07
ExecutionTime = 21.87 s  ClockTime = 22 s

Time = 0.048

Courant Number mean: 0.0467862 max: 0.146216
diagonal:  Solving for rho, Initial residual = 0, Final residual = 0, No Iterations 0
PIMPLE: Iteration 1
smoothSolver:  Solving for Ux, Initial residual = 0.00584073, Final residual = 3.40643e-07, No Iterations 1
smoothSolver:  Solving for Uy, Initial residual = 0.00961863, Final residual = 8.0642e-07, No Iterations 1
smoothSolver:  Solving for e, Initial residual = 0.0114618, Final residual = 4.18267e-06, No Iterations 1
smoothSolver:  Solving for p, Initial residual = 0.00718953, Final residual = 2.53211e-08, No Iterations 2
diagonal:  Solving for rho, Initial residual = 0, Final residual = 0, No Iterations 0
time step continuity errors : sum local = 1.33928e-08, global = 9.19872e-09, cumulative = 7.81697e-07
PIMPLE: Iteration 2
smoothSolver:  Solving for Ux, Initial residual = 1.83593e-05, Final residual = 1.48294e-09, No Iterations 1
smoothSolver:  Solving for Uy, Initial residual = 0.000108249, Final residual = 8.59712e-09, No Iterations 1
smoothSolver:  Solving for e, Initial residual = 0.000602677, Final residual = 2.32631e-07, No Iterations 1
smoothSolver:  Solving for p, Initial residual = 0.000145864, Final residual = 1.93311e-07, No Iterations 1
diagonal:  Solving for rho, Initial residual = 0, Final residual = 0, No Iterations 0
time step continuity errors : sum local = 1.03749e-07, global = 3.32448e-08, cumulative = 8.14941e-07
ExecutionTime = 22.24 s  ClockTime = 23 s

Time = 0.049

Courant Number mean: 0.0467477 max: 0.146983
diagonal:  Solving for rho, Initial residual = 0, Final residual = 0, No Iterations 0
PIMPLE: Iteration 1
smoothSolver:  Solving for Ux, Initial residual = 0.00575885, Final residual = 3.31198e-07, No Iterations 1
smoothSolver:  Solving for Uy, Initial residual = 0.00950839, Final residual = 7.92648e-07, No Iterations 1
smoothSolver:  Solving for e, Initial residual = 0.0112922, Final residual = 4.03183e-06, No Iterations 1
smoothSolver:  Solving for p, Initial residual = 0.00700165, Final residual = 2.57276e-08, No Iterations 2
diagonal:  Solving for rho, Initial residual = 0, Final residual = 0, No Iterations 0
time step continuity errors : sum local = 1.3832e-08, global = 9.66525e-09, cumulative = 8.24607e-07
PIMPLE: Iteration 2
smoothSolver:  Solving for Ux, Initial residual = 1.84417e-05, Final residual = 1.44994e-09, No Iterations 1
smoothSolver:  Solving for Uy, Initial residual = 0.000108686, Final residual = 8.6171e-09, No Iterations 1
smoothSolver:  Solving for e, Initial residual = 0.000530572, Final residual = 2.13074e-07, No Iterations 1
smoothSolver:  Solving for p, Initial residual = 0.000126578, Final residual = 1.75071e-07, No Iterations 1
diagonal:  Solving for rho, Initial residual = 0, Final residual = 0, No Iterations 0
time step continuity errors : sum local = 9.55567e-08, global = 3.34121e-08, cumulative = 8.58019e-07
ExecutionTime = 22.61 s  ClockTime = 23 s

Time = 0.05

Courant Number mean: 0.0466987 max: 0.147777
diagonal:  Solving for rho, Initial residual = 0, Final residual = 0, No Iterations 0
PIMPLE: Iteration 1
smoothSolver:  Solving for Ux, Initial residual = 0.00568037, Final residual = 3.22535e-07, No Iterations 1
smoothSolver:  Solving for Uy, Initial residual = 0.00940274, Final residual = 7.80187e-07, No Iterations 1
smoothSolver:  Solving for e, Initial residual = 0.0110786, Final residual = 3.95855e-06, No Iterations 1
smoothSolver:  Solving for p, Initial residual = 0.00680576, Final residual = 2.60699e-08, No Iterations 2
[...]
PIMPLE: Iteration 1
smoothSolver:  Solving for Ux, Initial residual = 0.000904844, Final residual = 1.49339e-07, No Iterations 1
smoothSolver:  Solving for Uy, Initial residual = 0.0013524, Final residual = 1.80305e-07, No Iterations 1
smoothSolver:  Solving for e, Initial residual = 0.0014678, Final residual = 8.13748e-07, No Iterations 1
smoothSolver:  Solving for p, Initial residual = 0.000691097, Final residual = 1.48306e-08, No Iterations 2
diagonal:  Solving for rho, Initial residual = 0, Final residual = 0, No Iterations 0
time step continuity errors : sum local = 2.57282e-08, global = -2.03113e-10, cumulative = 0.000663215
PIMPLE: Iteration 2
smoothSolver:  Solving for Ux, Initial residual = 1.77808e-05, Final residual = 3.08104e-09, No Iterations 1
smoothSolver:  Solving for Uy, Initial residual = 1.62494e-05, Final residual = 3.15081e-09, No Iterations 1
smoothSolver:  Solving for e, Initial residual = 7.02318e-05, Final residual = 4.75225e-08, No Iterations 1
smoothSolver:  Solving for p, Initial residual = 1.86321e-05, Final residual = 7.36027e-08, No Iterations 1
diagonal:  Solving for rho, Initial residual = 0, Final residual = 0, No Iterations 0
time step continuity errors : sum local = 1.2772e-07, global = 1.29544e-08, cumulative = 0.000663228
ExecutionTime = 593.66 s  ClockTime = 594 s

Time = 1.6

Courant Number mean: 0.0442908 max: 0.148582
diagonal:  Solving for rho, Initial residual = 0, Final residual = 0, No Iterations 0
PIMPLE: Iteration 1
smoothSolver:  Solving for Ux, Initial residual = 0.000903644, Final residual = 1.49306e-07, No Iterations 1
smoothSolver:  Solving for Uy, Initial residual = 0.0013521, Final residual = 1.79799e-07, No Iterations 1
smoothSolver:  Solving for e, Initial residual = 0.00146717, Final residual = 8.10684e-07, No Iterations 1
smoothSolver:  Solving for p, Initial residual = 0.000691088, Final residual = 1.49289e-08, No Iterations 2
diagonal:  Solving for rho, Initial residual = 0, Final residual = 0, No Iterations 0
time step continuity errors : sum local = 2.58933e-08, global = -1.90179e-10, cumulative = 0.000663228
PIMPLE: Iteration 2
smoothSolver:  Solving for Ux, Initial residual = 1.78143e-05, Final residual = 3.07478e-09, No Iterations 1
smoothSolver:  Solving for Uy, Initial residual = 1.61853e-05, Final residual = 3.19891e-09, No Iterations 1
smoothSolver:  Solving for e, Initial residual = 7.11246e-05, Final residual = 4.86303e-08, No Iterations 1
smoothSolver:  Solving for p, Initial residual = 1.8771e-05, Final residual = 7.45228e-08, No Iterations 1
diagonal:  Solving for rho, Initial residual = 0, Final residual = 0, No Iterations 0
time step continuity errors : sum local = 1.2929e-07, global = 1.2975e-08, cumulative = 0.000663241
ExecutionTime = 594.03 s  ClockTime = 595 s

Time = 1.601

Courant Number mean: 0.044283 max: 0.147891
diagonal:  Solving for rho, Initial residual = 0, Final residual = 0, No Iterations 0
PIMPLE: Iteration 1
smoothSolver:  Solving for Ux, Initial residual = 0.000902381, Final residual = 1.49163e-07, No Iterations 1
smoothSolver:  Solving for Uy, Initial residual = 0.00135235, Final residual = 1.79749e-07, No Iterations 1
smoothSolver:  Solving for e, Initial residual = 0.00146619, Final residual = 8.11037e-07, No Iterations 1
smoothSolver:  Solving for p, Initial residual = 0.000691553, Final residual = 1.50276e-08, No Iterations 2
diagonal:  Solving for rho, Initial residual = 0, Final residual = 0, No Iterations 0
time step continuity errors : sum local = 2.60593e-08, global = -2.1422e-10, cumulative = 0.000663241
PIMPLE: Iteration 2
smoothSolver:  Solving for Ux, Initial residual = 1.77223e-05, Final residual = 3.07322e-09, No Iterations 1
smoothSolver:  Solving for Uy, Initial residual = 1.62867e-05, Final residual = 3.24741e-09, No Iterations 1
smoothSolver:  Solving for e, Initial residual = 7.19182e-05, Final residual = 4.94733e-08, No Iterations 1
smoothSolver:  Solving for p, Initial residual = 1.89622e-05, Final residual = 7.57598e-08, No Iterations 1
diagonal:  Solving for rho, Initial residual = 0, Final residual = 0, No Iterations 0
time step continuity errors : sum local = 1.31409e-07, global = 1.35417e-08, cumulative = 0.000663254
ExecutionTime = 594.42 s  ClockTime = 595 s

Time = 1.602

Courant Number mean: 0.0442755 max: 0.148011
diagonal:  Solving for rho, Initial residual = 0, Final residual = 0, No Iterations 0
PIMPLE: Iteration 1
smoothSolver:  Solving for Ux, Initial residual = 0.00090122, Final residual = 1.49182e-07, No Iterations 1
smoothSolver:  Solving for Uy, Initial residual = 0.00135268, Final residual = 1.79839e-07, No Iterations 1
smoothSolver:  Solving for e, Initial residual = 0.00146542, Final residual = 8.11105e-07, No Iterations 1
smoothSolver:  Solving for p, Initial residual = 0.000692599, Final residual = 1.52302e-08, No Iterations 2
diagonal:  Solving for rho, Initial residual = 0, Final residual = 0, No Iterations 0
time step continuity errors : sum local = 2.64052e-08, global = -2.71694e-10, cumulative = 0.000663254
PIMPLE: Iteration 2
smoothSolver:  Solving for Ux, Initial residual = 1.76159e-05, Final residual = 3.09777e-09, No Iterations 1
smoothSolver:  Solving for Uy, Initial residual = 1.63063e-05, Final residual = 3.29593e-09, No Iterations 1
smoothSolver:  Solving for e, Initial residual = 7.18046e-05, Final residual = 4.91691e-08, No Iterations 1
smoothSolver:  Solving for p, Initial residual = 1.86988e-05, Final residual = 7.42479e-08, No Iterations 1
diagonal:  Solving for rho, Initial residual = 0, Final residual = 0, No Iterations 0
time step continuity errors : sum local = 1.28761e-07, global = 1.33841e-08, cumulative = 0.000663267
ExecutionTime = 594.79 s  ClockTime = 596 s

Time = 1.603

Courant Number mean: 0.0442682 max: 0.149272
diagonal:  Solving for rho, Initial residual = 0, Final residual = 0, No Iterations 0
PIMPLE: Iteration 1
smoothSolver:  Solving for Ux, Initial residual = 0.000899972, Final residual = 1.4934e-07, No Iterations 1
smoothSolver:  Solving for Uy, Initial residual = 0.00135275, Final residual = 1.79836e-07, No Iterations 1
smoothSolver:  Solving for e, Initial residual = 0.00146445, Final residual = 8.07135e-07, No Iterations 1
smoothSolver:  Solving for p, Initial residual = 0.00069395, Final residual = 1.53345e-08, No Iterations 2
diagonal:  Solving for rho, Initial residual = 0, Final residual = 0, No Iterations 0
time step continuity errors : sum local = 2.65807e-08, global = -2.58455e-10, cumulative = 0.000663267
PIMPLE: Iteration 2
smoothSolver:  Solving for Ux, Initial residual = 1.75613e-05, Final residual = 3.08774e-09, No Iterations 1
smoothSolver:  Solving for Uy, Initial residual = 1.64157e-05, Final residual = 3.29381e-09, No Iterations 1
smoothSolver:  Solving for e, Initial residual = 7.18535e-05, Final residual = 4.93851e-08, No Iterations 1
smoothSolver:  Solving for p, Initial residual = 1.85011e-05, Final residual = 7.39627e-08, No Iterations 1
diagonal:  Solving for rho, Initial residual = 0, Final residual = 0, No Iterations 0
time step continuity errors : sum local = 1.2824e-07, global = 1.31733e-08, cumulative = 0.00066328
ExecutionTime = 595.17 s  ClockTime = 596 s

Time = 1.604

Courant Number mean: 0.0442613 max: 0.150008
diagonal:  Solving for rho, Initial residual = 0, Final residual = 0, No Iterations 0
PIMPLE: Iteration 1
smoothSolver:  Solving for Ux, Initial residual = 0.000898542, Final residual = 1.49404e-07, No Iterations 1
smoothSolver:  Solving for Uy, Initial residual = 0.00135253, Final residual = 1.79643e-07, No Iterations 1
smoothSolver:  Solving for e, Initial residual = 0.00146477, Final residual = 8.1075e-07, No Iterations 1
smoothSolver:  Solving for p, Initial residual = 0.000695695, Final residual = 1.54218e-08, No Iterations 2
diagonal:  Solving for rho, Initial residual = 0, Final residual = 0, No Iterations 0
time step continuity errors : sum local = 2.67266e-08, global = -2.85691e-10, cumulative = 0.00066328
PIMPLE: Iteration 2
smoothSolver:  Solving for Ux, Initial residual = 1.75677e-05, Final residual = 3.06895e-09, No Iterations 1
smoothSolver:  Solving for Uy, Initial residual = 1.64881e-05, Final residual = 3.26854e-09, No Iterations 1
smoothSolver:  Solving for e, Initial residual = 7.11745e-05, Final residual = 4.90559e-08, No Iterations 1
smoothSolver:  Solving for p, Initial residual = 1.84249e-05, Final residual = 7.36162e-08, No Iterations 1
diagonal:  Solving for rho, Initial residual = 0, Final residual = 0, No Iterations 0
time step continuity errors : sum local = 1.27614e-07, global = 1.27954e-08, cumulative = 0.000663293
ExecutionTime = 595.54 s  ClockTime = 596 s

Time = 1.605

Courant Number mean: 0.0442545 max: 0.150295
diagonal:  Solving for rho, Initial residual = 0, Final residual = 0, No Iterations 0
PIMPLE: Iteration 1
smoothSolver:  Solving for Ux, Initial residual = 0.000896967, Final residual = 1.49366e-07, No Iterations 1
smoothSolver:  Solving for Uy, Initial residual = 0.00135199, Final residual = 1.79387e-07, No Iterations 1
smoothSolver:  Solving for e, Initial residual = 0.00146673, Final residual = 8.10502e-07, No Iterations 1
smoothSolver:  Solving for p, Initial residual = 0.000697916, Final residual = 1.55581e-08, No Iterations 2
diagonal:  Solving for rho, Initial residual = 0, Final residual = 0, No Iterations 0
time step continuity errors : sum local = 2.69574e-08, global = -2.95322e-10, cumulative = 0.000663292
PIMPLE: Iteration 2
smoothSolver:  Solving for Ux, Initial residual = 1.75129e-05, Final residual = 3.09402e-09, No Iterations 1
smoothSolver:  Solving for Uy, Initial residual = 1.65569e-05, Final residual = 3.3476e-09, No Iterations 1
smoothSolver:  Solving for e, Initial residual = 7.08496e-05, Final residual = 4.94594e-08, No Iterations 1
smoothSolver:  Solving for p, Initial residual = 1.83807e-05, Final residual = 7.33215e-08, No Iterations 1
diagonal:  Solving for rho, Initial residual = 0, Final residual = 0, No Iterations 0
time step continuity errors : sum local = 1.27077e-07, global = 1.28012e-08, cumulative = 0.000663305
ExecutionTime = 595.92 s  ClockTime = 597 s

Time = 1.606

Courant Number mean: 0.044248 max: 0.150218
diagonal:  Solving for rho, Initial residual = 0, Final residual = 0, No Iterations 0
PIMPLE: Iteration 1
smoothSolver:  Solving for Ux, Initial residual = 0.000895381, Final residual = 1.49284e-07, No Iterations 1
smoothSolver:  Solving for Uy, Initial residual = 0.00135211, Final residual = 1.79507e-07, No Iterations 1
smoothSolver:  Solving for e, Initial residual = 0.00146858, Final residual = 8.13045e-07, No Iterations 1
smoothSolver:  Solving for p, Initial residual = 0.000700454, Final residual = 1.56815e-08, No Iterations 2
diagonal:  Solving for rho, Initial residual = 0, Final residual = 0, No Iterations 0
time step continuity errors : sum local = 2.71657e-08, global = -3.85675e-10, cumulative = 0.000663305
PIMPLE: Iteration 2
smoothSolver:  Solving for Ux, Initial residual = 1.74249e-05, Final residual = 3.07389e-09, No Iterations 1
smoothSolver:  Solving for Uy, Initial residual = 1.67539e-05, Final residual = 3.36694e-09, No Iterations 1
smoothSolver:  Solving for e, Initial residual = 7.06225e-05, Final residual = 4.99699e-08, No Iterations 1
smoothSolver:  Solving for p, Initial residual = 1.84315e-05, Final residual = 7.37301e-08, No Iterations 1
diagonal:  Solving for rho, Initial residual = 0, Final residual = 0, No Iterations 0
time step continuity errors : sum local = 1.2776e-07, global = 1.38182e-08, cumulative = 0.000663319
ExecutionTime = 596.29 s  ClockTime = 597 s

Time = 1.607

Courant Number mean: 0.0442414 max: 0.1499
diagonal:  Solving for rho, Initial residual = 0, Final residual = 0, No Iterations 0
PIMPLE: Iteration 1
smoothSolver:  Solving for Ux, Initial residual = 0.000893697, Final residual = 1.49293e-07, No Iterations 1
smoothSolver:  Solving for Uy, Initial residual = 0.00135219, Final residual = 1.79867e-07, No Iterations 1
smoothSolver:  Solving for e, Initial residual = 0.00146938, Final residual = 8.15381e-07, No Iterations 1
smoothSolver:  Solving for p, Initial residual = 0.00070293, Final residual = 1.57911e-08, No Iterations 2
diagonal:  Solving for rho, Initial residual = 0, Final residual = 0, No Iterations 0
time step continuity errors : sum local = 2.73501e-08, global = -4.59162e-10, cumulative = 0.000663318
PIMPLE: Iteration 2
smoothSolver:  Solving for Ux, Initial residual = 1.72643e-05, Final residual = 3.08149e-09, No Iterations 1
smoothSolver:  Solving for Uy, Initial residual = 1.67416e-05, Final residual = 3.45712e-09, No Iterations 1
smoothSolver:  Solving for e, Initial residual = 7.03786e-05, Final residual = 5.0007e-08, No Iterations 1
smoothSolver:  Solving for p, Initial residual = 1.85128e-05, Final residual = 7.38757e-08, No Iterations 1
diagonal:  Solving for rho, Initial residual = 0, Final residual = 0, No Iterations 0
time step continuity errors : sum local = 1.27986e-07, global = 1.42206e-08, cumulative = 0.000663332
ExecutionTime = 596.66 s  ClockTime = 597 s

Time = 1.608

Courant Number mean: 0.044235 max: 0.149434
diagonal:  Solving for rho, Initial residual = 0, Final residual = 0, No Iterations 0
PIMPLE: Iteration 1
smoothSolver:  Solving for Ux, Initial residual = 0.000891865, Final residual = 1.4943e-07, No Iterations 1
smoothSolver:  Solving for Uy, Initial residual = 0.00135184, Final residual = 1.80319e-07, No Iterations 1
smoothSolver:  Solving for e, Initial residual = 0.00146938, Final residual = 8.13834e-07, No Iterations 1
smoothSolver:  Solving for p, Initial residual = 0.000705339, Final residual = 1.58493e-08, No Iterations 2
diagonal:  Solving for rho, Initial residual = 0, Final residual = 0, No Iterations 0
time step continuity errors : sum local = 2.74454e-08, global = -4.63905e-10, cumulative = 0.000663332
PIMPLE: Iteration 2
smoothSolver:  Solving for Ux, Initial residual = 1.71382e-05, Final residual = 3.02136e-09, No Iterations 1
smoothSolver:  Solving for Uy, Initial residual = 1.68027e-05, Final residual = 3.40717e-09, No Iterations 1
smoothSolver:  Solving for e, Initial residual = 7.10011e-05, Final residual = 5.02573e-08, No Iterations 1
smoothSolver:  Solving for p, Initial residual = 1.88012e-05, Final residual = 7.47579e-08, No Iterations 1
diagonal:  Solving for rho, Initial residual = 0, Final residual = 0, No Iterations 0
time step continuity errors : sum local = 1.29489e-07, global = 1.41702e-08, cumulative = 0.000663346
ExecutionTime = 597.03 s  ClockTime = 598 s

Time = 1.609

Courant Number mean: 0.0442284 max: 0.14888
diagonal:  Solving for rho, Initial residual = 0, Final residual = 0, No Iterations 0
PIMPLE: Iteration 1
smoothSolver:  Solving for Ux, Initial residual = 0.0008898, Final residual = 1.49406e-07, No Iterations 1
smoothSolver:  Solving for Uy, Initial residual = 0.00135144, Final residual = 1.80398e-07, No Iterations 1
smoothSolver:  Solving for e, Initial residual = 0.00146982, Final residual = 8.18491e-07, No Iterations 1
smoothSolver:  Solving for p, Initial residual = 0.000707661, Final residual = 1.58871e-08, No Iterations 2
diagonal:  Solving for rho, Initial residual = 0, Final residual = 0, No Iterations 0
time step continuity errors : sum local = 2.75052e-08, global = -4.0766e-10, cumulative = 0.000663346
PIMPLE: Iteration 2
smoothSolver:  Solving for Ux, Initial residual = 1.70884e-05, Final residual = 2.98696e-09, No Iterations 1
smoothSolver:  Solving for Uy, Initial residual = 1.6739e-05, Final residual = 3.31782e-09, No Iterations 1
smoothSolver:  Solving for e, Initial residual = 7.10015e-05, Final residual = 5.02378e-08, No Iterations 1
smoothSolver:  Solving for p, Initial residual = 1.89982e-05, Final residual = 7.55968e-08, No Iterations 1
diagonal:  Solving for rho, Initial residual = 0, Final residual = 0, No Iterations 0
time step continuity errors : sum local = 1.30916e-07, global = 1.41345e-08, cumulative = 0.00066336
ExecutionTime = 597.4 s  ClockTime = 598 s

Time = 1.61

Courant Number mean: 0.0442216 max: 0.148254
diagonal:  Solving for rho, Initial residual = 0, Final residual = 0, No Iterations 0
PIMPLE: Iteration 1
smoothSolver:  Solving for Ux, Initial residual = 0.000887482, Final residual = 1.49229e-07, No Iterations 1
smoothSolver:  Solving for Uy, Initial residual = 0.00135042, Final residual = 1.80452e-07, No Iterations 1
smoothSolver:  Solving for e, Initial residual = 0.0014711, Final residual = 8.16868e-07, No Iterations 1
smoothSolver:  Solving for p, Initial residual = 0.00070929, Final residual = 1.59409e-08, No Iterations 2
diagonal:  Solving for rho, Initial residual = 0, Final residual = 0, No Iterations 0
time step continuity errors : sum local = 2.75928e-08, global = -3.46251e-10, cumulative = 0.00066336
PIMPLE: Iteration 2
smoothSolver:  Solving for Ux, Initial residual = 1.70704e-05, Final residual = 3.02195e-09, No Iterations 1
smoothSolver:  Solving for Uy, Initial residual = 1.67438e-05, Final residual = 3.36434e-09, No Iterations 1
smoothSolver:  Solving for e, Initial residual = 7.1476e-05, Final residual = 5.16479e-08, No Iterations 1
smoothSolver:  Solving for p, Initial residual = 1.92167e-05, Final residual = 7.71575e-08, No Iterations 1
diagonal:  Solving for rho, Initial residual = 0, Final residual = 0, No Iterations 0
time step continuity errors : sum local = 1.33591e-07, global = 1.45047e-08, cumulative = 0.000663374
ExecutionTime = 597.78 s  ClockTime = 599 s

Time = 1.611

Courant Number mean: 0.0442144 max: 0.147542
diagonal:  Solving for rho, Initial residual = 0, Final residual = 0, No Iterations 0
PIMPLE: Iteration 1
smoothSolver:  Solving for Ux, Initial residual = 0.000885256, Final residual = 1.49015e-07, No Iterations 1
smoothSolver:  Solving for Uy, Initial residual = 0.00134933, Final residual = 1.80803e-07, No Iterations 1
smoothSolver:  Solving for e, Initial residual = 0.00147188, Final residual = 8.22037e-07, No Iterations 1
smoothSolver:  Solving for p, Initial residual = 0.000710405, Final residual = 1.6071e-08, No Iterations 2
diagonal:  Solving for rho, Initial residual = 0, Final residual = 0, No Iterations 0
time step continuity errors : sum local = 2.78122e-08, global = -3.64575e-10, cumulative = 0.000663374
PIMPLE: Iteration 2
smoothSolver:  Solving for Ux, Initial residual = 1.69973e-05, Final residual = 2.97496e-09, No Iterations 1
smoothSolver:  Solving for Uy, Initial residual = 1.68608e-05, Final residual = 3.3398e-09, No Iterations 1
smoothSolver:  Solving for e, Initial residual = 7.20767e-05, Final residual = 5.24617e-08, No Iterations 1
smoothSolver:  Solving for p, Initial residual = 1.91808e-05, Final residual = 7.8002e-08, No Iterations 1
diagonal:  Solving for rho, Initial residual = 0, Final residual = 0, No Iterations 0
time step continuity errors : sum local = 1.35025e-07, global = 1.50103e-08, cumulative = 0.000663389
ExecutionTime = 598.15 s  ClockTime = 599 s

Time = 1.612

Courant Number mean: 0.044207 max: 0.146724
diagonal:  Solving for rho, Initial residual = 0, Final residual = 0, No Iterations 0
PIMPLE: Iteration 1
smoothSolver:  Solving for Ux, Initial residual = 0.000883168, Final residual = 1.48847e-07, No Iterations 1
smoothSolver:  Solving for Uy, Initial residual = 0.00134842, Final residual = 1.81235e-07, No Iterations 1
smoothSolver:  Solving for e, Initial residual = 0.00147311, Final residual = 8.23886e-07, No Iterations 1
smoothSolver:  Solving for p, Initial residual = 0.000711736, Final residual = 1.61563e-08, No Iterations 2
diagonal:  Solving for rho, Initial residual = 0, Final residual = 0, No Iterations 0
time step continuity errors : sum local = 2.7954e-08, global = -2.96088e-10, cumulative = 0.000663388
PIMPLE: Iteration 2
smoothSolver:  Solving for Ux, Initial residual = 1.68385e-05, Final residual = 2.95338e-09, No Iterations 1
smoothSolver:  Solving for Uy, Initial residual = 1.68349e-05, Final residual = 3.34651e-09, No Iterations 1
