/work/05124/newman/stampede2/openFOAM_3/mach-3-tunnel-with-step/sonicFoam10
Wed May  1 22:58:14 CDT 2019
/*---------------------------------------------------------------------------*\
  =========                 |
  \\      /  F ield         | OpenFOAM: The Open Source CFD Toolbox
   \\    /   O peration     | Website:  https://openfoam.org
    \\  /    A nd           | Version:  6.0
     \\/     M anipulation  |
\*---------------------------------------------------------------------------*/
Build  : 6.0
Exec   : blockMesh
Date   : May 01 2019
Time   : 22:58:15
Host   : "c506-002.stampede2.tacc.utexas.edu"
PID    : 316964
I/O    : uncollated
Case   : /work/05124/newman/stampede2/openFOAM_3/mach-3-tunnel-with-step/sonicFoam10
nProcs : 1
sigFpe : Enabling floating point exception trapping (FOAM_SIGFPE).
fileModificationChecking : Monitoring run-time modified files using timeStampMaster (fileModificationSkew 10)
allowSystemOperations : Allowing user-supplied system call operations

// * * * * * * * * * * * * * * * * * * * * * * * * * * * * * * * * * * * * * //
Create time

Deleting polyMesh directory
    "/work/05124/newman/stampede2/openFOAM_3/mach-3-tunnel-with-step/sonicFoam10/constant/polyMesh"
Creating block mesh from
    "/work/05124/newman/stampede2/openFOAM_3/mach-3-tunnel-with-step/sonicFoam10/system/blockMeshDict"
No non-linear block edges defined
No non-planar block faces defined
Creating topology blocks
Creating topology patches

Creating block mesh topology
--> FOAM Warning : 
    From function Foam::polyMesh::polyMesh(const Foam::IOobject &, const Foam::Xfer<Foam::Field<Foam::Vector<double>>> &, const Foam::List<Foam::cellShape> &, const Foam::List<Foam::List<Foam::face>> &, const Foam::List<Foam::word> &, const Foam::PtrList<Foam::dictionary> &, const Foam::word &, const Foam::word &, bool)
    in file meshes/polyMesh/polyMeshFromShapeMesh.C at line 871
    Found 6 undefined faces in mesh; adding to default patch.

Check topology

	Basic statistics
		Number of internal faces : 2
		Number of boundary faces : 14
		Number of defined boundary faces : 14
		Number of undefined boundary faces : 0
	Checking patch -> block consistency

Creating block offsets
Creating merge list .

Creating polyMesh from blockMesh
Creating points with scale 1
    Block 0 cell size :
        i : 0.06 .. 0.06
        j : 0.02 .. 0.02
        k : 0.1 .. 0.1

    Block 1 cell size :
        i : 0.06 .. 0.06
        j : 0.08 .. 0.08
        k : 0.1 .. 0.1

    Block 2 cell size :
        i : 0.24 .. 0.24
        j : 0.08 .. 0.08
        k : 0.1 .. 0.1

Creating cells
Creating patches

Writing polyMesh
----------------
Mesh Information
----------------
  boundingBox: (0 0 -0.05) (3 1 0.05)
  nPoints: 682
  nCells: 300
  nFaces: 1240
  nInternalFaces: 560
----------------
Patches
----------------
  patch 0 (start: 560 size: 20) name: inlet
  patch 1 (start: 580 size: 10) name: outlet
  patch 2 (start: 590 size: 20) name: top
  patch 3 (start: 610 size: 10) name: bottom
  patch 4 (start: 620 size: 20) name: step
  patch 5 (start: 640 size: 600) name: defaultFaces

End

/*---------------------------------------------------------------------------*\
  =========                 |
  \\      /  F ield         | OpenFOAM: The Open Source CFD Toolbox
   \\    /   O peration     | Website:  https://openfoam.org
    \\  /    A nd           | Version:  6.0
     \\/     M anipulation  |
\*---------------------------------------------------------------------------*/
Build  : 6.0
Exec   : checkMesh
Date   : May 01 2019
Time   : 22:58:16
Host   : "c506-002.stampede2.tacc.utexas.edu"
PID    : 316969
I/O    : uncollated
Case   : /work/05124/newman/stampede2/openFOAM_3/mach-3-tunnel-with-step/sonicFoam10
nProcs : 1
sigFpe : Enabling floating point exception trapping (FOAM_SIGFPE).
fileModificationChecking : Monitoring run-time modified files using timeStampMaster (fileModificationSkew 10)
allowSystemOperations : Allowing user-supplied system call operations

// * * * * * * * * * * * * * * * * * * * * * * * * * * * * * * * * * * * * * //
Create time

Create polyMesh for time = 0

Time = 0

Mesh stats
    points:           682
    internal points:  0
    faces:            1240
    internal faces:   560
    cells:            300
    faces per cell:   6
    boundary patches: 6
    point zones:      0
    face zones:       0
    cell zones:       0

Overall number of cells of each type:
    hexahedra:     300
    prisms:        0
    wedges:        0
    pyramids:      0
    tet wedges:    0
    tetrahedra:    0
    polyhedra:     0

Checking topology...
    Boundary definition OK.
    Cell to face addressing OK.
    Point usage OK.
    Upper triangular ordering OK.
    Face vertices OK.
    Number of regions: 1 (OK).

Checking patch topology for multiply connected surfaces...
    Patch               Faces    Points   Surface topology                  
    inlet               20       42       ok (non-closed singly connected)  
    outlet              10       22       ok (non-closed singly connected)  
    top                 20       42       ok (non-closed singly connected)  
    bottom              10       22       ok (non-closed singly connected)  
    step                20       42       ok (non-closed singly connected)  
    defaultFaces        600      682      ok (non-closed singly connected)  

Checking geometry...
    Overall domain bounding box (0 0 -0.05) (3 1 0.05)
    Mesh has 2 geometric (non-empty/wedge) directions (1 1 0)
    Mesh has 2 solution (non-empty) directions (1 1 0)
    All edges aligned with or perpendicular to non-empty directions.
    Boundary openness (-2.07929e-18 -4.75267e-18 6.11906e-17) OK.
    Max cell openness = 1.807e-16 OK.
    Max aspect ratio = 3 OK.
    Minimum face area = 0.0012. Maximum face area = 0.024.  Face area magnitudes OK.
    Min volume = 0.00012. Max volume = 0.00192.  Total volume = 0.252.  Cell volumes OK.
    Mesh non-orthogonality Max: 0 average: 0
    Non-orthogonality check OK.
    Face pyramids OK.
    Max skewness = 8.32667e-15 OK.
    Coupled point location match (average 0) OK.

Mesh OK.

End

/*---------------------------------------------------------------------------*\
  =========                 |
  \\      /  F ield         | OpenFOAM: The Open Source CFD Toolbox
   \\    /   O peration     | Website:  https://openfoam.org
    \\  /    A nd           | Version:  6.0
     \\/     M anipulation  |
\*---------------------------------------------------------------------------*/
Build  : 6.0
Exec   : sonicFoam
Date   : May 01 2019
Time   : 22:58:18
Host   : "c506-002.stampede2.tacc.utexas.edu"
PID    : 316970
I/O    : uncollated
Case   : /work/05124/newman/stampede2/openFOAM_3/mach-3-tunnel-with-step/sonicFoam10
nProcs : 1
sigFpe : Enabling floating point exception trapping (FOAM_SIGFPE).
fileModificationChecking : Monitoring run-time modified files using timeStampMaster (fileModificationSkew 10)
allowSystemOperations : Allowing user-supplied system call operations

// * * * * * * * * * * * * * * * * * * * * * * * * * * * * * * * * * * * * * //
Create time

Create mesh for time = 0


PIMPLE: No convergence criteria found


PIMPLE: No corrector convergence criteria found
        Calclations will do 2 corrections

Reading thermophysical properties

Selecting thermodynamics package 
{
    type            hePsiThermo;
    mixture         pureMixture;
    transport       const;
    thermo          hConst;
    equationOfState perfectGas;
    specie          specie;
    energy          sensibleInternalEnergy;
}

Reading field U

Reading/calculating face flux field phi

Creating turbulence model

Selecting turbulence model type laminar
Selecting laminar stress model Stokes
Creating field kinetic energy K

No MRF models present

No finite volume options present

Starting time loop

Time = 0.01

Courant Number mean: 0.213095 max: 0.5
diagonal:  Solving for rho, Initial residual = 0, Final residual = 0, No Iterations 0
PIMPLE: Iteration 1
smoothSolver:  Solving for Ux, Initial residual = 0.674404, Final residual = 0.248216, No Iterations 1000
smoothSolver:  Solving for Uy, Initial residual = 0.997126, Final residual = 5.26455e-17, No Iterations 1
smoothSolver:  Solving for e, Initial residual = 1, Final residual = 7.18861e-07, No Iterations 5
smoothSolver:  Solving for p, Initial residual = 1, Final residual = 5.6827e-08, No Iterations 6
diagonal:  Solving for rho, Initial residual = 0, Final residual = 0, No Iterations 0
time step continuity errors : sum local = 1.67495e-10, global = 1.24448e-10, cumulative = 1.24448e-10
PIMPLE: Iteration 2
smoothSolver:  Solving for Ux, Initial residual = 0.0157943, Final residual = 6.97644e-08, No Iterations 1
smoothSolver:  Solving for Uy, Initial residual = 0.0567384, Final residual = 6.333e-07, No Iterations 1
smoothSolver:  Solving for e, Initial residual = 0.0761466, Final residual = 5.96152e-06, No Iterations 2
smoothSolver:  Solving for p, Initial residual = 0.0492252, Final residual = 4.29407e-07, No Iterations 3
diagonal:  Solving for rho, Initial residual = 0, Final residual = 0, No Iterations 0
time step continuity errors : sum local = 2.37069e-08, global = 2.36431e-08, cumulative = 2.37675e-08
ExecutionTime = 0.02 s  ClockTime = 0 s

Time = 0.02

Courant Number mean: 0.212507 max: 0.503577
diagonal:  Solving for rho, Initial residual = 0, Final residual = 0, No Iterations 0
PIMPLE: Iteration 1
smoothSolver:  Solving for Ux, Initial residual = 0.0595045, Final residual = 4.44968e-09, No Iterations 1
smoothSolver:  Solving for Uy, Initial residual = 0.139342, Final residual = 5.55111e-09, No Iterations 1
smoothSolver:  Solving for e, Initial residual = 0.0549845, Final residual = 7.09197e-07, No Iterations 3
smoothSolver:  Solving for p, Initial residual = 0.0490966, Final residual = 5.06807e-08, No Iterations 3
diagonal:  Solving for rho, Initial residual = 0, Final residual = 0, No Iterations 0
time step continuity errors : sum local = 3.26049e-09, global = 6.7679e-10, cumulative = 2.44443e-08
PIMPLE: Iteration 2
smoothSolver:  Solving for Ux, Initial residual = 0.0057166, Final residual = 6.04016e-12, No Iterations 1
smoothSolver:  Solving for Uy, Initial residual = 0.0154228, Final residual = 4.90398e-13, No Iterations 1
smoothSolver:  Solving for e, Initial residual = 0.0232643, Final residual = 8.25827e-06, No Iterations 2
smoothSolver:  Solving for p, Initial residual = 0.00564519, Final residual = 1.24148e-07, No Iterations 3
diagonal:  Solving for rho, Initial residual = 0, Final residual = 0, No Iterations 0
time step continuity errors : sum local = 1.50416e-08, global = 7.48817e-09, cumulative = 3.19325e-08
ExecutionTime = 0.03 s  ClockTime = 0 s

Time = 0.03

Courant Number mean: 0.212148 max: 0.510347
diagonal:  Solving for rho, Initial residual = 0, Final residual = 0, No Iterations 0
PIMPLE: Iteration 1
smoothSolver:  Solving for Ux, Initial residual = 0.0440857, Final residual = 3.99355e-09, No Iterations 1
smoothSolver:  Solving for Uy, Initial residual = 0.0994117, Final residual = 1.05458e-10, No Iterations 1
smoothSolver:  Solving for e, Initial residual = 0.0373106, Final residual = 7.43953e-06, No Iterations 2
smoothSolver:  Solving for p, Initial residual = 0.0256284, Final residual = 1.45082e-07, No Iterations 3
diagonal:  Solving for rho, Initial residual = 0, Final residual = 0, No Iterations 0
time step continuity errors : sum local = 1.92839e-08, global = 3.8433e-09, cumulative = 3.57758e-08
PIMPLE: Iteration 2
smoothSolver:  Solving for Ux, Initial residual = 0.00374914, Final residual = 5.95249e-11, No Iterations 1
smoothSolver:  Solving for Uy, Initial residual = 0.00837538, Final residual = 9.66454e-12, No Iterations 1
smoothSolver:  Solving for e, Initial residual = 0.0158253, Final residual = 6.38841e-06, No Iterations 2
smoothSolver:  Solving for p, Initial residual = 0.00448522, Final residual = 9.50144e-08, No Iterations 3
diagonal:  Solving for rho, Initial residual = 0, Final residual = 0, No Iterations 0
time step continuity errors : sum local = 1.88302e-08, global = 1.39847e-08, cumulative = 4.97605e-08
ExecutionTime = 0.03 s  ClockTime = 0 s

Time = 0.04

Courant Number mean: 0.211913 max: 0.518728
diagonal:  Solving for rho, Initial residual = 0, Final residual = 0, No Iterations 0
PIMPLE: Iteration 1
smoothSolver:  Solving for Ux, Initial residual = 0.0366314, Final residual = 8.21983e-09, No Iterations 1
smoothSolver:  Solving for Uy, Initial residual = 0.0811996, Final residual = 1.37464e-10, No Iterations 1
smoothSolver:  Solving for e, Initial residual = 0.0311986, Final residual = 3.66947e-07, No Iterations 3
smoothSolver:  Solving for p, Initial residual = 0.0173527, Final residual = 3.03619e-07, No Iterations 3
diagonal:  Solving for rho, Initial residual = 0, Final residual = 0, No Iterations 0
time step continuity errors : sum local = 6.37406e-08, global = 2.0889e-08, cumulative = 7.06495e-08
PIMPLE: Iteration 2
smoothSolver:  Solving for Ux, Initial residual = 0.00308776, Final residual = 3.38431e-10, No Iterations 1
smoothSolver:  Solving for Uy, Initial residual = 0.00649671, Final residual = 4.664e-11, No Iterations 1
smoothSolver:  Solving for e, Initial residual = 0.0184905, Final residual = 4.84913e-07, No Iterations 3
smoothSolver:  Solving for p, Initial residual = 0.00604894, Final residual = 1.17831e-07, No Iterations 3
diagonal:  Solving for rho, Initial residual = 0, Final residual = 0, No Iterations 0
time step continuity errors : sum local = 3.3441e-08, global = 2.16662e-08, cumulative = 9.23157e-08
ExecutionTime = 0.03 s  ClockTime = 0 s

Time = 0.05

Courant Number mean: 0.211863 max: 0.528057
diagonal:  Solving for rho, Initial residual = 0, Final residual = 0, No Iterations 0
PIMPLE: Iteration 1
smoothSolver:  Solving for Ux, Initial residual = 0.031683, Final residual = 5.75645e-08, No Iterations 1
smoothSolver:  Solving for Uy, Initial residual = 0.0704193, Final residual = 5.66646e-09, No Iterations 1
smoothSolver:  Solving for e, Initial residual = 0.0288927, Final residual = 2.9439e-06, No Iterations 2
smoothSolver:  Solving for p, Initial residual = 0.0137706, Final residual = 5.02465e-07, No Iterations 3
diagonal:  Solving for rho, Initial residual = 0, Final residual = 0, No Iterations 0
time step continuity errors : sum local = 1.49033e-07, global = 3.4671e-08, cumulative = 1.26987e-07
PIMPLE: Iteration 2
smoothSolver:  Solving for Ux, Initial residual = 0.0032818, Final residual = 5.02303e-09, No Iterations 1
smoothSolver:  Solving for Uy, Initial residual = 0.00607131, Final residual = 4.37357e-10, No Iterations 1
smoothSolver:  Solving for e, Initial residual = 0.0157562, Final residual = 6.95236e-06, No Iterations 2
smoothSolver:  Solving for p, Initial residual = 0.00669691, Final residual = 1.26435e-07, No Iterations 3
diagonal:  Solving for rho, Initial residual = 0, Final residual = 0, No Iterations 0
time step continuity errors : sum local = 4.78494e-08, global = 3.02178e-08, cumulative = 1.57204e-07
ExecutionTime = 0.04 s  ClockTime = 0 s

Time = 0.06

Courant Number mean: 0.21188 max: 0.537552
diagonal:  Solving for rho, Initial residual = 0, Final residual = 0, No Iterations 0
PIMPLE: Iteration 1
smoothSolver:  Solving for Ux, Initial residual = 0.0284622, Final residual = 5.90045e-08, No Iterations 1
smoothSolver:  Solving for Uy, Initial residual = 0.0632897, Final residual = 1.82248e-09, No Iterations 1
smoothSolver:  Solving for e, Initial residual = 0.0268021, Final residual = 4.79194e-07, No Iterations 3
smoothSolver:  Solving for p, Initial residual = 0.0131032, Final residual = 6.98261e-07, No Iterations 3
diagonal:  Solving for rho, Initial residual = 0, Final residual = 0, No Iterations 0
time step continuity errors : sum local = 2.74544e-07, global = 1.42981e-07, cumulative = 3.00185e-07
PIMPLE: Iteration 2
smoothSolver:  Solving for Ux, Initial residual = 0.00395214, Final residual = 5.66413e-09, No Iterations 1
smoothSolver:  Solving for Uy, Initial residual = 0.00638459, Final residual = 1.5109e-10, No Iterations 1
smoothSolver:  Solving for e, Initial residual = 0.0204134, Final residual = 3.49057e-07, No Iterations 3
smoothSolver:  Solving for p, Initial residual = 0.00705733, Final residual = 1.79405e-07, No Iterations 3
diagonal:  Solving for rho, Initial residual = 0, Final residual = 0, No Iterations 0
time step continuity errors : sum local = 8.64544e-08, global = 4.43298e-08, cumulative = 3.44515e-07
ExecutionTime = 0.04 s  ClockTime = 0 s

Time = 0.07

Courant Number mean: 0.211888 max: 0.547032
diagonal:  Solving for rho, Initial residual = 0, Final residual = 0, No Iterations 0
PIMPLE: Iteration 1
smoothSolver:  Solving for Ux, Initial residual = 0.0264916, Final residual = 4.9677e-08, No Iterations 1
smoothSolver:  Solving for Uy, Initial residual = 0.0585563, Final residual = 1.8381e-09, No Iterations 1
smoothSolver:  Solving for e, Initial residual = 0.0291889, Final residual = 2.30986e-06, No Iterations 2
smoothSolver:  Solving for p, Initial residual = 0.0122396, Final residual = 9.2329e-07, No Iterations 3
diagonal:  Solving for rho, Initial residual = 0, Final residual = 0, No Iterations 0
time step continuity errors : sum local = 4.59933e-07, global = 2.60025e-07, cumulative = 6.0454e-07
PIMPLE: Iteration 2
smoothSolver:  Solving for Ux, Initial residual = 0.00385733, Final residual = 6.83112e-09, No Iterations 1
smoothSolver:  Solving for Uy, Initial residual = 0.00676962, Final residual = 4.18423e-10, No Iterations 1
smoothSolver:  Solving for e, Initial residual = 0.0147497, Final residual = 6.29324e-06, No Iterations 2
smoothSolver:  Solving for p, Initial residual = 0.00568767, Final residual = 1.89955e-07, No Iterations 3
diagonal:  Solving for rho, Initial residual = 0, Final residual = 0, No Iterations 0
time step continuity errors : sum local = 1.12659e-07, global = 8.29622e-08, cumulative = 6.87502e-07
ExecutionTime = 0.04 s  ClockTime = 0 s

Time = 0.08

Courant Number mean: 0.211768 max: 0.557334
diagonal:  Solving for rho, Initial residual = 0, Final residual = 0, No Iterations 0
PIMPLE: Iteration 1
smoothSolver:  Solving for Ux, Initial residual = 0.0250302, Final residual = 2.74496e-08, No Iterations 1
smoothSolver:  Solving for Uy, Initial residual = 0.0549452, Final residual = 1.27154e-09, No Iterations 1
smoothSolver:  Solving for e, Initial residual = 0.0257118, Final residual = 4.23863e-07, No Iterations 3
smoothSolver:  Solving for p, Initial residual = 0.010487, Final residual = 8.69744e-08, No Iterations 4
diagonal:  Solving for rho, Initial residual = 0, Final residual = 0, No Iterations 0
time step continuity errors : sum local = 5.30512e-08, global = 3.39172e-08, cumulative = 7.21419e-07
PIMPLE: Iteration 2
smoothSolver:  Solving for Ux, Initial residual = 0.00287378, Final residual = 5.60036e-09, No Iterations 1
smoothSolver:  Solving for Uy, Initial residual = 0.00628578, Final residual = 2.67898e-09, No Iterations 1
smoothSolver:  Solving for e, Initial residual = 0.0193309, Final residual = 8.71577e-06, No Iterations 2
smoothSolver:  Solving for p, Initial residual = 0.00881224, Final residual = 3.63668e-07, No Iterations 3
diagonal:  Solving for rho, Initial residual = 0, Final residual = 0, No Iterations 0
time step continuity errors : sum local = 2.59559e-07, global = 1.5925e-07, cumulative = 8.8067e-07
ExecutionTime = 0.04 s  ClockTime = 0 s

Time = 0.09

Courant Number mean: 0.212493 max: 0.595582
diagonal:  Solving for rho, Initial residual = 0, Final residual = 0, No Iterations 0
PIMPLE: Iteration 1
smoothSolver:  Solving for Ux, Initial residual = 0.021267, Final residual = 1.32484e-07, No Iterations 1
smoothSolver:  Solving for Uy, Initial residual = 0.0512973, Final residual = 1.97212e-08, No Iterations 1
smoothSolver:  Solving for e, Initial residual = 0.0338213, Final residual = 2.23102e-06, No Iterations 2
smoothSolver:  Solving for p, Initial residual = 0.0111227, Final residual = 1.04251e-07, No Iterations 4
diagonal:  Solving for rho, Initial residual = 0, Final residual = 0, No Iterations 0
time step continuity errors : sum local = 7.68305e-08, global = 4.1933e-08, cumulative = 9.22603e-07
PIMPLE: Iteration 2
smoothSolver:  Solving for Ux, Initial residual = 0.00569433, Final residual = 4.77797e-09, No Iterations 1
smoothSolver:  Solving for Uy, Initial residual = 0.00778477, Final residual = 3.14168e-10, No Iterations 1
smoothSolver:  Solving for e, Initial residual = 0.0161416, Final residual = 6.16423e-06, No Iterations 2
smoothSolver:  Solving for p, Initial residual = 0.00588544, Final residual = 1.7404e-07, No Iterations 3
diagonal:  Solving for rho, Initial residual = 0, Final residual = 0, No Iterations 0
time step continuity errors : sum local = 1.46144e-07, global = 7.86844e-08, cumulative = 1.00129e-06
ExecutionTime = 0.05 s  ClockTime = 0 s

Time = 0.1

Courant Number mean: 0.212202 max: 0.576362
diagonal:  Solving for rho, Initial residual = 0, Final residual = 0, No Iterations 0
PIMPLE: Iteration 1
smoothSolver:  Solving for Ux, Initial residual = 0.0222572, Final residual = 5.3183e-08, No Iterations 1
smoothSolver:  Solving for Uy, Initial residual = 0.0492173, Final residual = 2.28323e-08, No Iterations 1
smoothSolver:  Solving for e, Initial residual = 0.028572, Final residual = 5.85442e-07, No Iterations 3
smoothSolver:  Solving for p, Initial residual = 0.00982685, Final residual = 1.37068e-07, No Iterations 4
diagonal:  Solving for rho, Initial residual = 0, Final residual = 0, No Iterations 0
time step continuity errors : sum local = 1.17858e-07, global = 8.05226e-08, cumulative = 1.08181e-06
PIMPLE: Iteration 2
smoothSolver:  Solving for Ux, Initial residual = 0.00379703, Final residual = 2.19064e-08, No Iterations 1
smoothSolver:  Solving for Uy, Initial residual = 0.00669278, Final residual = 5.91763e-08, No Iterations 1
smoothSolver:  Solving for e, Initial residual = 0.018726, Final residual = 8.44889e-06, No Iterations 2
smoothSolver:  Solving for p, Initial residual = 0.00750563, Final residual = 3.64992e-07, No Iterations 3
diagonal:  Solving for rho, Initial residual = 0, Final residual = 0, No Iterations 0
time step continuity errors : sum local = 3.52701e-07, global = 1.25895e-07, cumulative = 1.2077e-06
ExecutionTime = 0.05 s  ClockTime = 0 s

Time = 0.11

Courant Number mean: 0.212649 max: 0.65193
diagonal:  Solving for rho, Initial residual = 0, Final residual = 0, No Iterations 0
PIMPLE: Iteration 1
smoothSolver:  Solving for Ux, Initial residual = 0.0198297, Final residual = 7.62341e-07, No Iterations 1
smoothSolver:  Solving for Uy, Initial residual = 0.0472807, Final residual = 6.72139e-07, No Iterations 1
smoothSolver:  Solving for e, Initial residual = 0.0305849, Final residual = 7.8308e-07, No Iterations 3
smoothSolver:  Solving for p, Initial residual = 0.00944853, Final residual = 1.57871e-07, No Iterations 4
diagonal:  Solving for rho, Initial residual = 0, Final residual = 0, No Iterations 0
time step continuity errors : sum local = 1.56274e-07, global = 1.09974e-07, cumulative = 1.31768e-06
PIMPLE: Iteration 2
smoothSolver:  Solving for Ux, Initial residual = 0.00482452, Final residual = 1.58929e-07, No Iterations 1
smoothSolver:  Solving for Uy, Initial residual = 0.00669539, Final residual = 2.46287e-07, No Iterations 1
smoothSolver:  Solving for e, Initial residual = 0.0191643, Final residual = 9.60778e-06, No Iterations 2
smoothSolver:  Solving for p, Initial residual = 0.00748471, Final residual = 2.52516e-07, No Iterations 3
diagonal:  Solving for rho, Initial residual = 0, Final residual = 0, No Iterations 0
time step continuity errors : sum local = 2.76333e-07, global = -3.97346e-08, cumulative = 1.27794e-06
ExecutionTime = 0.05 s  ClockTime = 0 s

Time = 0.12

Courant Number mean: 0.213036 max: 0.696971
diagonal:  Solving for rho, Initial residual = 0, Final residual = 0, No Iterations 0
PIMPLE: Iteration 1
smoothSolver:  Solving for Ux, Initial residual = 0.0184159, Final residual = 4.2426e-07, No Iterations 1
smoothSolver:  Solving for Uy, Initial residual = 0.0435359, Final residual = 3.14976e-07, No Iterations 1
smoothSolver:  Solving for e, Initial residual = 0.0305285, Final residual = 9.253e-07, No Iterations 3
smoothSolver:  Solving for p, Initial residual = 0.00920614, Final residual = 1.49876e-07, No Iterations 4
diagonal:  Solving for rho, Initial residual = 0, Final residual = 0, No Iterations 0
time step continuity errors : sum local = 1.67475e-07, global = 1.34612e-07, cumulative = 1.41256e-06
PIMPLE: Iteration 2
smoothSolver:  Solving for Ux, Initial residual = 0.00557777, Final residual = 6.32769e-09, No Iterations 1
smoothSolver:  Solving for Uy, Initial residual = 0.00741901, Final residual = 6.18947e-08, No Iterations 1
smoothSolver:  Solving for e, Initial residual = 0.0173369, Final residual = 4.18322e-07, No Iterations 3
smoothSolver:  Solving for p, Initial residual = 0.00620176, Final residual = 1.66071e-07, No Iterations 3
diagonal:  Solving for rho, Initial residual = 0, Final residual = 0, No Iterations 0
time step continuity errors : sum local = 2.01537e-07, global = -1.58464e-07, cumulative = 1.25409e-06
ExecutionTime = 0.05 s  ClockTime = 0 s

Time = 0.13

Courant Number mean: 0.212917 max: 0.664993
diagonal:  Solving for rho, Initial residual = 0, Final residual = 0, No Iterations 0
PIMPLE: Iteration 1
smoothSolver:  Solving for Ux, Initial residual = 0.0183746, Final residual = 2.96126e-08, No Iterations 1
smoothSolver:  Solving for Uy, Initial residual = 0.0412958, Final residual = 2.8936e-08, No Iterations 1
smoothSolver:  Solving for e, Initial residual = 0.0263059, Final residual = 8.82182e-07, No Iterations 3
smoothSolver:  Solving for p, Initial residual = 0.00809983, Final residual = 1.40626e-07, No Iterations 4
diagonal:  Solving for rho, Initial residual = 0, Final residual = 0, No Iterations 0
time step continuity errors : sum local = 1.73062e-07, global = 1.59235e-07, cumulative = 1.41333e-06
PIMPLE: Iteration 2
smoothSolver:  Solving for Ux, Initial residual = 0.00424745, Final residual = 3.22801e-08, No Iterations 1
smoothSolver:  Solving for Uy, Initial residual = 0.00661884, Final residual = 3.50244e-08, No Iterations 1
smoothSolver:  Solving for e, Initial residual = 0.0167083, Final residual = 7.70834e-06, No Iterations 2
smoothSolver:  Solving for p, Initial residual = 0.00654008, Final residual = 2.62939e-07, No Iterations 3
diagonal:  Solving for rho, Initial residual = 0, Final residual = 0, No Iterations 0
time step continuity errors : sum local = 3.49164e-07, global = -3.34219e-07, cumulative = 1.07911e-06
ExecutionTime = 0.06 s  ClockTime = 0 s

Time = 0.14

Courant Number mean: 0.213134 max: 0.619436
diagonal:  Solving for rho, Initial residual = 0, Final residual = 0, No Iterations 0
PIMPLE: Iteration 1
smoothSolver:  Solving for Ux, Initial residual = 0.0170332, Final residual = 9.56013e-09, No Iterations 1
smoothSolver:  Solving for Uy, Initial residual = 0.0391905, Final residual = 3.57109e-08, No Iterations 1
smoothSolver:  Solving for e, Initial residual = 0.0238735, Final residual = 9.30169e-07, No Iterations 3
smoothSolver:  Solving for p, Initial residual = 0.00743131, Final residual = 1.28015e-07, No Iterations 4
diagonal:  Solving for rho, Initial residual = 0, Final residual = 0, No Iterations 0
time step continuity errors : sum local = 1.70475e-07, global = 1.60187e-07, cumulative = 1.2393e-06
PIMPLE: Iteration 2
smoothSolver:  Solving for Ux, Initial residual = 0.00430852, Final residual = 1.23114e-07, No Iterations 1
smoothSolver:  Solving for Uy, Initial residual = 0.00607117, Final residual = 8.47287e-08, No Iterations 1
smoothSolver:  Solving for e, Initial residual = 0.0160136, Final residual = 5.96252e-06, No Iterations 2
smoothSolver:  Solving for p, Initial residual = 0.00658819, Final residual = 4.32633e-07, No Iterations 3
diagonal:  Solving for rho, Initial residual = 0, Final residual = 0, No Iterations 0
time step continuity errors : sum local = 6.15597e-07, global = -6.11006e-07, cumulative = 6.2829e-07
ExecutionTime = 0.06 s  ClockTime = 0 s

Time = 0.15

Courant Number mean: 0.21347 max: 0.686148
diagonal:  Solving for rho, Initial residual = 0, Final residual = 0, No Iterations 0
PIMPLE: Iteration 1
smoothSolver:  Solving for Ux, Initial residual = 0.0159402, Final residual = 4.98593e-08, No Iterations 1
smoothSolver:  Solving for Uy, Initial residual = 0.0364069, Final residual = 5.06769e-08, No Iterations 1
smoothSolver:  Solving for e, Initial residual = 0.0225689, Final residual = 8.40423e-07, No Iterations 3
smoothSolver:  Solving for p, Initial residual = 0.0069509, Final residual = 9.78076e-08, No Iterations 4
diagonal:  Solving for rho, Initial residual = 0, Final residual = 0, No Iterations 0
time step continuity errors : sum local = 1.3876e-07, global = 1.32512e-07, cumulative = 7.60802e-07
PIMPLE: Iteration 2
smoothSolver:  Solving for Ux, Initial residual = 0.00420338, Final residual = 3.31424e-08, No Iterations 1
smoothSolver:  Solving for Uy, Initial residual = 0.00577636, Final residual = 2.13519e-08, No Iterations 1
smoothSolver:  Solving for e, Initial residual = 0.0155758, Final residual = 5.26565e-06, No Iterations 2
smoothSolver:  Solving for p, Initial residual = 0.00631274, Final residual = 6.21804e-07, No Iterations 3
diagonal:  Solving for rho, Initial residual = 0, Final residual = 0, No Iterations 0
time step continuity errors : sum local = 9.36094e-07, global = -9.20559e-07, cumulative = -1.59757e-07
ExecutionTime = 0.06 s  ClockTime = 0 s

Time = 0.16

Courant Number mean: 0.21373 max: 0.684763
diagonal:  Solving for rho, Initial residual = 0, Final residual = 0, No Iterations 0
PIMPLE: Iteration 1
smoothSolver:  Solving for Ux, Initial residual = 0.0147775, Final residual = 9.84119e-08, No Iterations 1
smoothSolver:  Solving for Uy, Initial residual = 0.0342573, Final residual = 3.13193e-08, No Iterations 1
smoothSolver:  Solving for e, Initial residual = 0.0215473, Final residual = 9.51539e-07, No Iterations 3
smoothSolver:  Solving for p, Initial residual = 0.00701306, Final residual = 7.98088e-07, No Iterations 3
diagonal:  Solving for rho, Initial residual = 0, Final residual = 0, No Iterations 0
time step continuity errors : sum local = 1.1891e-06, global = 6.7536e-07, cumulative = 5.15603e-07
PIMPLE: Iteration 2
smoothSolver:  Solving for Ux, Initial residual = 0.00417186, Final residual = 2.0093e-08, No Iterations 1
smoothSolver:  Solving for Uy, Initial residual = 0.00525893, Final residual = 5.82146e-09, No Iterations 1
smoothSolver:  Solving for e, Initial residual = 0.0175872, Final residual = 4.26861e-06, No Iterations 2
smoothSolver:  Solving for p, Initial residual = 0.0071876, Final residual = 9.00524e-07, No Iterations 3
diagonal:  Solving for rho, Initial residual = 0, Final residual = 0, No Iterations 0
time step continuity errors : sum local = 1.41553e-06, global = -1.40338e-06, cumulative = -8.87774e-07
ExecutionTime = 0.07 s  ClockTime = 0 s

Time = 0.17

Courant Number mean: 0.214319 max: 0.701197
diagonal:  Solving for rho, Initial residual = 0, Final residual = 0, No Iterations 0
PIMPLE: Iteration 1
smoothSolver:  Solving for Ux, Initial residual = 0.0134281, Final residual = 6.21698e-08, No Iterations 1
smoothSolver:  Solving for Uy, Initial residual = 0.0317919, Final residual = 1.07481e-08, No Iterations 1
smoothSolver:  Solving for e, Initial residual = 0.0212583, Final residual = 1.15612e-06, No Iterations 3
smoothSolver:  Solving for p, Initial residual = 0.00730034, Final residual = 6.98274e-07, No Iterations 3
diagonal:  Solving for rho, Initial residual = 0, Final residual = 0, No Iterations 0
time step continuity errors : sum local = 1.08112e-06, global = 3.25028e-07, cumulative = -5.62747e-07
PIMPLE: Iteration 2
smoothSolver:  Solving for Ux, Initial residual = 0.00447556, Final residual = 3.01856e-08, No Iterations 1
smoothSolver:  Solving for Uy, Initial residual = 0.00541111, Final residual = 5.29535e-09, No Iterations 1
smoothSolver:  Solving for e, Initial residual = 0.0165888, Final residual = 5.41876e-06, No Iterations 2
smoothSolver:  Solving for p, Initial residual = 0.0063515, Final residual = 1.12381e-07, No Iterations 4
diagonal:  Solving for rho, Initial residual = 0, Final residual = 0, No Iterations 0
time step continuity errors : sum local = 1.81971e-07, global = -1.76798e-07, cumulative = -7.39545e-07
ExecutionTime = 0.07 s  ClockTime = 0 s

Time = 0.18

Courant Number mean: 0.214492 max: 0.702803
diagonal:  Solving for rho, Initial residual = 0, Final residual = 0, No Iterations 0
PIMPLE: Iteration 1
smoothSolver:  Solving for Ux, Initial residual = 0.0128392, Final residual = 2.34704e-07, No Iterations 1
smoothSolver:  Solving for Uy, Initial residual = 0.0298756, Final residual = 1.78648e-09, No Iterations 1
smoothSolver:  Solving for e, Initial residual = 0.0205138, Final residual = 9.8654e-07, No Iterations 3
smoothSolver:  Solving for p, Initial residual = 0.0073708, Final residual = 8.13491e-07, No Iterations 3
diagonal:  Solving for rho, Initial residual = 0, Final residual = 0, No Iterations 0
time step continuity errors : sum local = 1.29378e-06, global = -6.77535e-08, cumulative = -8.07298e-07
PIMPLE: Iteration 2
smoothSolver:  Solving for Ux, Initial residual = 0.00391017, Final residual = 3.42378e-09, No Iterations 1
smoothSolver:  Solving for Uy, Initial residual = 0.00416471, Final residual = 4.95494e-10, No Iterations 1
smoothSolver:  Solving for e, Initial residual = 0.0178415, Final residual = 4.54345e-06, No Iterations 2
smoothSolver:  Solving for p, Initial residual = 0.00675273, Final residual = 1.36303e-07, No Iterations 4
diagonal:  Solving for rho, Initial residual = 0, Final residual = 0, No Iterations 0
time step continuity errors : sum local = 2.26108e-07, global = -2.19352e-07, cumulative = -1.02665e-06
ExecutionTime = 0.07 s  ClockTime = 1 s

Time = 0.19

Courant Number mean: 0.214943 max: 0.730624
diagonal:  Solving for rho, Initial residual = 0, Final residual = 0, No Iterations 0
PIMPLE: Iteration 1
smoothSolver:  Solving for Ux, Initial residual = 0.0118143, Final residual = 2.9809e-07, No Iterations 1
smoothSolver:  Solving for Uy, Initial residual = 0.0281034, Final residual = 1.48195e-08, No Iterations 1
smoothSolver:  Solving for e, Initial residual = 0.0205281, Final residual = 9.40049e-07, No Iterations 3
smoothSolver:  Solving for p, Initial residual = 0.00757824, Final residual = 9.33061e-07, No Iterations 3
diagonal:  Solving for rho, Initial residual = 0, Final residual = 0, No Iterations 0
time step continuity errors : sum local = 1.51266e-06, global = -3.87184e-07, cumulative = -1.41383e-06
PIMPLE: Iteration 2
smoothSolver:  Solving for Ux, Initial residual = 0.00384713, Final residual = 1.07482e-08, No Iterations 1
smoothSolver:  Solving for Uy, Initial residual = 0.00402592, Final residual = 8.02333e-09, No Iterations 1
smoothSolver:  Solving for e, Initial residual = 0.0175004, Final residual = 3.66958e-06, No Iterations 2
smoothSolver:  Solving for p, Initial residual = 0.00695662, Final residual = 1.46022e-07, No Iterations 4
diagonal:  Solving for rho, Initial residual = 0, Final residual = 0, No Iterations 0
time step continuity errors : sum local = 2.46342e-07, global = -2.40561e-07, cumulative = -1.6544e-06
ExecutionTime = 0.07 s  ClockTime = 1 s

Time = 0.2

Courant Number mean: 0.215341 max: 0.707071
diagonal:  Solving for rho, Initial residual = 0, Final residual = 0, No Iterations 0
PIMPLE: Iteration 1
smoothSolver:  Solving for Ux, Initial residual = 0.010992, Final residual = 2.3034e-07, No Iterations 1
smoothSolver:  Solving for Uy, Initial residual = 0.0260402, Final residual = 2.06574e-08, No Iterations 1
smoothSolver:  Solving for e, Initial residual = 0.020603, Final residual = 9.54124e-07, No Iterations 3
smoothSolver:  Solving for p, Initial residual = 0.0076785, Final residual = 8.68442e-07, No Iterations 3
diagonal:  Solving for rho, Initial residual = 0, Final residual = 0, No Iterations 0
time step continuity errors : sum local = 1.42785e-06, global = -4.67896e-07, cumulative = -2.12229e-06
PIMPLE: Iteration 2
smoothSolver:  Solving for Ux, Initial residual = 0.00396949, Final residual = 2.43981e-08, No Iterations 1
smoothSolver:  Solving for Uy, Initial residual = 0.00435587, Final residual = 4.4242e-09, No Iterations 1
smoothSolver:  Solving for e, Initial residual = 0.016199, Final residual = 4.1631e-06, No Iterations 2
smoothSolver:  Solving for p, Initial residual = 0.00627009, Final residual = 1.38663e-07, No Iterations 4
diagonal:  Solving for rho, Initial residual = 0, Final residual = 0, No Iterations 0
time step continuity errors : sum local = 2.35889e-07, global = -2.28652e-07, cumulative = -2.35094e-06
ExecutionTime = 0.08 s  ClockTime = 1 s

Time = 0.21

Courant Number mean: 0.215526 max: 0.723224
diagonal:  Solving for rho, Initial residual = 0, Final residual = 0, No Iterations 0
PIMPLE: Iteration 1
smoothSolver:  Solving for Ux, Initial residual = 0.0105383, Final residual = 1.56435e-07, No Iterations 1
smoothSolver:  Solving for Uy, Initial residual = 0.0249581, Final residual = 1.03441e-07, No Iterations 1
smoothSolver:  Solving for e, Initial residual = 0.0202427, Final residual = 8.75769e-07, No Iterations 3
smoothSolver:  Solving for p, Initial residual = 0.00758325, Final residual = 8.97126e-07, No Iterations 3
diagonal:  Solving for rho, Initial residual = 0, Final residual = 0, No Iterations 0
time step continuity errors : sum local = 1.4887e-06, global = -5.4557e-07, cumulative = -2.89651e-06
PIMPLE: Iteration 2
smoothSolver:  Solving for Ux, Initial residual = 0.00348493, Final residual = 2.57242e-09, No Iterations 1
smoothSolver:  Solving for Uy, Initial residual = 0.0040448, Final residual = 1.20365e-08, No Iterations 1
smoothSolver:  Solving for e, Initial residual = 0.0148267, Final residual = 4.07436e-06, No Iterations 2
smoothSolver:  Solving for p, Initial residual = 0.00618336, Final residual = 1.29037e-07, No Iterations 4
diagonal:  Solving for rho, Initial residual = 0, Final residual = 0, No Iterations 0
time step continuity errors : sum local = 2.20704e-07, global = -2.13071e-07, cumulative = -3.10958e-06
ExecutionTime = 0.08 s  ClockTime = 1 s

Time = 0.22

Courant Number mean: 0.21578 max: 0.661315
diagonal:  Solving for rho, Initial residual = 0, Final residual = 0, No Iterations 0
PIMPLE: Iteration 1
smoothSolver:  Solving for Ux, Initial residual = 0.0101488, Final residual = 9.31066e-08, No Iterations 1
smoothSolver:  Solving for Uy, Initial residual = 0.0236625, Final residual = 1.59494e-07, No Iterations 1
smoothSolver:  Solving for e, Initial residual = 0.0199599, Final residual = 5.5393e-07, No Iterations 3
smoothSolver:  Solving for p, Initial residual = 0.00755017, Final residual = 6.97354e-07, No Iterations 3
diagonal:  Solving for rho, Initial residual = 0, Final residual = 0, No Iterations 0
time step continuity errors : sum local = 1.16574e-06, global = -3.7897e-07, cumulative = -3.48855e-06
PIMPLE: Iteration 2
smoothSolver:  Solving for Ux, Initial residual = 0.00333972, Final residual = 2.89904e-09, No Iterations 1
smoothSolver:  Solving for Uy, Initial residual = 0.00418614, Final residual = 1.71965e-08, No Iterations 1
smoothSolver:  Solving for e, Initial residual = 0.0134101, Final residual = 3.5069e-06, No Iterations 2
smoothSolver:  Solving for p, Initial residual = 0.00554458, Final residual = 1.11505e-07, No Iterations 4
diagonal:  Solving for rho, Initial residual = 0, Final residual = 0, No Iterations 0
time step continuity errors : sum local = 1.91763e-07, global = -1.84538e-07, cumulative = -3.67309e-06
ExecutionTime = 0.08 s  ClockTime = 1 s

Time = 0.23

Courant Number mean: 0.215985 max: 0.678289
diagonal:  Solving for rho, Initial residual = 0, Final residual = 0, No Iterations 0
PIMPLE: Iteration 1
smoothSolver:  Solving for Ux, Initial residual = 0.00981802, Final residual = 1.49346e-07, No Iterations 1
smoothSolver:  Solving for Uy, Initial residual = 0.0235321, Final residual = 4.11022e-07, No Iterations 1
smoothSolver:  Solving for e, Initial residual = 0.0193991, Final residual = 4.27722e-07, No Iterations 3
smoothSolver:  Solving for p, Initial residual = 0.00749497, Final residual = 6.50487e-07, No Iterations 3
diagonal:  Solving for rho, Initial residual = 0, Final residual = 0, No Iterations 0
time step continuity errors : sum local = 1.09325e-06, global = -3.27401e-07, cumulative = -4.00049e-06
PIMPLE: Iteration 2
smoothSolver:  Solving for Ux, Initial residual = 0.00294173, Final residual = 6.23434e-09, No Iterations 1
smoothSolver:  Solving for Uy, Initial residual = 0.00368399, Final residual = 5.63268e-08, No Iterations 1
smoothSolver:  Solving for e, Initial residual = 0.0131121, Final residual = 3.92745e-06, No Iterations 2
smoothSolver:  Solving for p, Initial residual = 0.00623704, Final residual = 9.407e-07, No Iterations 3
diagonal:  Solving for rho, Initial residual = 0, Final residual = 0, No Iterations 0
time step continuity errors : sum local = 1.62525e-06, global = -1.55156e-06, cumulative = -5.55205e-06
ExecutionTime = 0.08 s  ClockTime = 1 s

Time = 0.24

Courant Number mean: 0.216529 max: 0.665079
diagonal:  Solving for rho, Initial residual = 0, Final residual = 0, No Iterations 0
PIMPLE: Iteration 1
smoothSolver:  Solving for Ux, Initial residual = 0.00922043, Final residual = 2.35029e-07, No Iterations 1
smoothSolver:  Solving for Uy, Initial residual = 0.0227245, Final residual = 5.56678e-07, No Iterations 1
smoothSolver:  Solving for e, Initial residual = 0.0190675, Final residual = 4.76497e-07, No Iterations 3
smoothSolver:  Solving for p, Initial residual = 0.00772096, Final residual = 4.8073e-07, No Iterations 3
diagonal:  Solving for rho, Initial residual = 0, Final residual = 0, No Iterations 0
time step continuity errors : sum local = 8.14055e-07, global = -1.18021e-07, cumulative = -5.67007e-06
PIMPLE: Iteration 2
smoothSolver:  Solving for Ux, Initial residual = 0.0029233, Final residual = 1.34256e-08, No Iterations 1
smoothSolver:  Solving for Uy, Initial residual = 0.00388167, Final residual = 5.02764e-08, No Iterations 1
smoothSolver:  Solving for e, Initial residual = 0.0120202, Final residual = 4.17918e-06, No Iterations 2
smoothSolver:  Solving for p, Initial residual = 0.00562748, Final residual = 7.14982e-07, No Iterations 3
diagonal:  Solving for rho, Initial residual = 0, Final residual = 0, No Iterations 0
time step continuity errors : sum local = 1.24146e-06, global = -1.11068e-06, cumulative = -6.78075e-06
ExecutionTime = 0.09 s  ClockTime = 1 s

Time = 0.25

Courant Number mean: 0.216905 max: 0.661955
diagonal:  Solving for rho, Initial residual = 0, Final residual = 0, No Iterations 0
PIMPLE: Iteration 1
smoothSolver:  Solving for Ux, Initial residual = 0.00917616, Final residual = 2.15178e-07, No Iterations 1
smoothSolver:  Solving for Uy, Initial residual = 0.0224216, Final residual = 3.66576e-07, No Iterations 1
smoothSolver:  Solving for e, Initial residual = 0.0180818, Final residual = 4.94724e-07, No Iterations 3
smoothSolver:  Solving for p, Initial residual = 0.00798757, Final residual = 4.48964e-07, No Iterations 3
diagonal:  Solving for rho, Initial residual = 0, Final residual = 0, No Iterations 0
time step continuity errors : sum local = 7.65602e-07, global = -1.00431e-07, cumulative = -6.88118e-06
PIMPLE: Iteration 2
smoothSolver:  Solving for Ux, Initial residual = 0.0027084, Final residual = 3.91338e-09, No Iterations 1
smoothSolver:  Solving for Uy, Initial residual = 0.00368636, Final residual = 5.7974e-08, No Iterations 1
smoothSolver:  Solving for e, Initial residual = 0.012295, Final residual = 3.85092e-06, No Iterations 2
smoothSolver:  Solving for p, Initial residual = 0.00603065, Final residual = 5.21116e-07, No Iterations 3
diagonal:  Solving for rho, Initial residual = 0, Final residual = 0, No Iterations 0
time step continuity errors : sum local = 9.10168e-07, global = -7.8529e-07, cumulative = -7.66647e-06
ExecutionTime = 0.09 s  ClockTime = 1 s

Time = 0.26

Courant Number mean: 0.217483 max: 0.671825
diagonal:  Solving for rho, Initial residual = 0, Final residual = 0, No Iterations 0
PIMPLE: Iteration 1
smoothSolver:  Solving for Ux, Initial residual = 0.00915412, Final residual = 2.01719e-07, No Iterations 1
smoothSolver:  Solving for Uy, Initial residual = 0.0218701, Final residual = 2.73026e-07, No Iterations 1
smoothSolver:  Solving for e, Initial residual = 0.0181131, Final residual = 5.6042e-07, No Iterations 3
smoothSolver:  Solving for p, Initial residual = 0.00840544, Final residual = 2.10708e-07, No Iterations 3
diagonal:  Solving for rho, Initial residual = 0, Final residual = 0, No Iterations 0
time step continuity errors : sum local = 3.62719e-07, global = 1.77891e-07, cumulative = -7.48858e-06
PIMPLE: Iteration 2
smoothSolver:  Solving for Ux, Initial residual = 0.00276977, Final residual = 1.33357e-08, No Iterations 1
smoothSolver:  Solving for Uy, Initial residual = 0.00389269, Final residual = 2.88042e-08, No Iterations 1
smoothSolver:  Solving for e, Initial residual = 0.0115237, Final residual = 4.54496e-06, No Iterations 2
smoothSolver:  Solving for p, Initial residual = 0.00485693, Final residual = 3.44506e-07, No Iterations 3
diagonal:  Solving for rho, Initial residual = 0, Final residual = 0, No Iterations 0
time step continuity errors : sum local = 6.05561e-07, global = -4.84171e-07, cumulative = -7.97275e-06
ExecutionTime = 0.09 s  ClockTime = 1 s

Time = 0.27

Courant Number mean: 0.217532 max: 0.661234
diagonal:  Solving for rho, Initial residual = 0, Final residual = 0, No Iterations 0
PIMPLE: Iteration 1
smoothSolver:  Solving for Ux, Initial residual = 0.00965175, Final residual = 1.39465e-07, No Iterations 1
smoothSolver:  Solving for Uy, Initial residual = 0.0213445, Final residual = 2.4555e-07, No Iterations 1
smoothSolver:  Solving for e, Initial residual = 0.017813, Final residual = 9.29483e-06, No Iterations 2
smoothSolver:  Solving for p, Initial residual = 0.00849287, Final residual = 3.68647e-07, No Iterations 3
diagonal:  Solving for rho, Initial residual = 0, Final residual = 0, No Iterations 0
time step continuity errors : sum local = 6.39523e-07, global = -1.16311e-08, cumulative = -7.98438e-06
PIMPLE: Iteration 2
smoothSolver:  Solving for Ux, Initial residual = 0.00216733, Final residual = 1.58344e-08, No Iterations 1
smoothSolver:  Solving for Uy, Initial residual = 0.00283159, Final residual = 1.0954e-08, No Iterations 1
smoothSolver:  Solving for e, Initial residual = 0.0129746, Final residual = 3.03254e-06, No Iterations 2
smoothSolver:  Solving for p, Initial residual = 0.00611047, Final residual = 2.89277e-07, No Iterations 3
diagonal:  Solving for rho, Initial residual = 0, Final residual = 0, No Iterations 0
time step continuity errors : sum local = 5.12415e-07, global = -4.1313e-07, cumulative = -8.39751e-06
ExecutionTime = 0.09 s  ClockTime = 1 s

Time = 0.28

Courant Number mean: 0.217915 max: 0.660564
diagonal:  Solving for rho, Initial residual = 0, Final residual = 0, No Iterations 0
PIMPLE: Iteration 1
smoothSolver:  Solving for Ux, Initial residual = 0.00944599, Final residual = 7.95684e-08, No Iterations 1
smoothSolver:  Solving for Uy, Initial residual = 0.0210092, Final residual = 1.80083e-07, No Iterations 1
smoothSolver:  Solving for e, Initial residual = 0.0180918, Final residual = 4.68911e-07, No Iterations 3
smoothSolver:  Solving for p, Initial residual = 0.00878731, Final residual = 3.7889e-07, No Iterations 3
diagonal:  Solving for rho, Initial residual = 0, Final residual = 0, No Iterations 0
time step continuity errors : sum local = 6.62931e-07, global = 3.75782e-08, cumulative = -8.35994e-06
PIMPLE: Iteration 2
smoothSolver:  Solving for Ux, Initial residual = 0.00234473, Final residual = 2.14179e-08, No Iterations 1
smoothSolver:  Solving for Uy, Initial residual = 0.00318356, Final residual = 7.82712e-09, No Iterations 1
smoothSolver:  Solving for e, Initial residual = 0.0130973, Final residual = 3.58863e-06, No Iterations 2
smoothSolver:  Solving for p, Initial residual = 0.00618526, Final residual = 2.64155e-07, No Iterations 3
diagonal:  Solving for rho, Initial residual = 0, Final residual = 0, No Iterations 0
time step continuity errors : sum local = 4.71117e-07, global = -3.75282e-07, cumulative = -8.73522e-06
ExecutionTime = 0.1 s  ClockTime = 1 s

Time = 0.29

Courant Number mean: 0.218278 max: 0.659364
diagonal:  Solving for rho, Initial residual = 0, Final residual = 0, No Iterations 0
PIMPLE: Iteration 1
smoothSolver:  Solving for Ux, Initial residual = 0.00939071, Final residual = 3.26608e-08, No Iterations 1
smoothSolver:  Solving for Uy, Initial residual = 0.0206553, Final residual = 7.29422e-08, No Iterations 1
smoothSolver:  Solving for e, Initial residual = 0.0184719, Final residual = 5.62589e-07, No Iterations 3
smoothSolver:  Solving for p, Initial residual = 0.0092459, Final residual = 3.50028e-07, No Iterations 3
diagonal:  Solving for rho, Initial residual = 0, Final residual = 0, No Iterations 0
time step continuity errors : sum local = 6.17879e-07, global = 7.30426e-08, cumulative = -8.66217e-06
PIMPLE: Iteration 2
smoothSolver:  Solving for Ux, Initial residual = 0.00243588, Final residual = 2.39571e-08, No Iterations 1
smoothSolver:  Solving for Uy, Initial residual = 0.00334938, Final residual = 7.63037e-09, No Iterations 1
smoothSolver:  Solving for e, Initial residual = 0.0129456, Final residual = 3.40201e-06, No Iterations 2
smoothSolver:  Solving for p, Initial residual = 0.00596539, Final residual = 2.72393e-07, No Iterations 3
diagonal:  Solving for rho, Initial residual = 0, Final residual = 0, No Iterations 0
time step continuity errors : sum local = 4.89214e-07, global = -3.69478e-07, cumulative = -9.03165e-06
ExecutionTime = 0.1 s  ClockTime = 1 s

Time = 0.3

Courant Number mean: 0.218562 max: 0.657512
diagonal:  Solving for rho, Initial residual = 0, Final residual = 0, No Iterations 0
PIMPLE: Iteration 1
smoothSolver:  Solving for Ux, Initial residual = 0.00939652, Final residual = 1.92974e-08, No Iterations 1
smoothSolver:  Solving for Uy, Initial residual = 0.0200722, Final residual = 5.45499e-08, No Iterations 1
smoothSolver:  Solving for e, Initial residual = 0.0186835, Final residual = 4.60381e-07, No Iterations 3
smoothSolver:  Solving for p, Initial residual = 0.00931709, Final residual = 3.54868e-07, No Iterations 3
diagonal:  Solving for rho, Initial residual = 0, Final residual = 0, No Iterations 0
time step continuity errors : sum local = 6.31362e-07, global = -2.25738e-08, cumulative = -9.05423e-06
PIMPLE: Iteration 2
smoothSolver:  Solving for Ux, Initial residual = 0.00216385, Final residual = 1.81781e-08, No Iterations 1
smoothSolver:  Solving for Uy, Initial residual = 0.00299137, Final residual = 4.44142e-09, No Iterations 1
smoothSolver:  Solving for e, Initial residual = 0.0130461, Final residual = 3.25453e-06, No Iterations 2
smoothSolver:  Solving for p, Initial residual = 0.00606036, Final residual = 2.48355e-07, No Iterations 3
diagonal:  Solving for rho, Initial residual = 0, Final residual = 0, No Iterations 0
time step continuity errors : sum local = 4.48941e-07, global = -3.18205e-07, cumulative = -9.37243e-06
ExecutionTime = 0.1 s  ClockTime = 1 s

Time = 0.31

Courant Number mean: 0.218981 max: 0.65547
diagonal:  Solving for rho, Initial residual = 0, Final residual = 0, No Iterations 0
PIMPLE: Iteration 1
smoothSolver:  Solving for Ux, Initial residual = 0.00917356, Final residual = 1.87475e-08, No Iterations 1
smoothSolver:  Solving for Uy, Initial residual = 0.019732, Final residual = 2.59069e-08, No Iterations 1
smoothSolver:  Solving for e, Initial residual = 0.0189982, Final residual = 5.70829e-07, No Iterations 3
smoothSolver:  Solving for p, Initial residual = 0.00948028, Final residual = 3.43284e-07, No Iterations 3
diagonal:  Solving for rho, Initial residual = 0, Final residual = 0, No Iterations 0
time step continuity errors : sum local = 6.15359e-07, global = -9.12754e-08, cumulative = -9.46371e-06
PIMPLE: Iteration 2
smoothSolver:  Solving for Ux, Initial residual = 0.00210669, Final residual = 1.56109e-08, No Iterations 1
smoothSolver:  Solving for Uy, Initial residual = 0.00296118, Final residual = 2.03447e-09, No Iterations 1
smoothSolver:  Solving for e, Initial residual = 0.0131453, Final residual = 3.70612e-06, No Iterations 2
smoothSolver:  Solving for p, Initial residual = 0.00628669, Final residual = 2.35748e-07, No Iterations 3
diagonal:  Solving for rho, Initial residual = 0, Final residual = 0, No Iterations 0
time step continuity errors : sum local = 4.28711e-07, global = -3.12979e-07, cumulative = -9.77668e-06
ExecutionTime = 0.1 s  ClockTime = 1 s

Time = 0.32

Courant Number mean: 0.219373 max: 0.694183
diagonal:  Solving for rho, Initial residual = 0, Final residual = 0, No Iterations 0
PIMPLE: Iteration 1
smoothSolver:  Solving for Ux, Initial residual = 0.00892682, Final residual = 1.65262e-08, No Iterations 1
smoothSolver:  Solving for Uy, Initial residual = 0.0195221, Final residual = 1.86264e-08, No Iterations 1
smoothSolver:  Solving for e, Initial residual = 0.0194649, Final residual = 7.36063e-07, No Iterations 3
smoothSolver:  Solving for p, Initial residual = 0.00976252, Final residual = 2.19593e-07, No Iterations 3
diagonal:  Solving for rho, Initial residual = 0, Final residual = 0, No Iterations 0
time step continuity errors : sum local = 3.96248e-07, global = 2.23379e-08, cumulative = -9.75435e-06
PIMPLE: Iteration 2
smoothSolver:  Solving for Ux, Initial residual = 0.00218943, Final residual = 1.29284e-08, No Iterations 1
smoothSolver:  Solving for Uy, Initial residual = 0.00306893, Final residual = 1.33487e-09, No Iterations 1
smoothSolver:  Solving for e, Initial residual = 0.0129762, Final residual = 4.29818e-06, No Iterations 2
smoothSolver:  Solving for p, Initial residual = 0.00577337, Final residual = 2.04169e-07, No Iterations 3
diagonal:  Solving for rho, Initial residual = 0, Final residual = 0, No Iterations 0
time step continuity errors : sum local = 3.72676e-07, global = -2.72353e-07, cumulative = -1.00267e-05
ExecutionTime = 0.11 s  ClockTime = 1 s

Time = 0.33

Courant Number mean: 0.219477 max: 0.65148
diagonal:  Solving for rho, Initial residual = 0, Final residual = 0, No Iterations 0
PIMPLE: Iteration 1
smoothSolver:  Solving for Ux, Initial residual = 0.00890984, Final residual = 1.55224e-08, No Iterations 1
smoothSolver:  Solving for Uy, Initial residual = 0.0189295, Final residual = 9.22765e-09, No Iterations 1
smoothSolver:  Solving for e, Initial residual = 0.019839, Final residual = 6.01794e-07, No Iterations 3
smoothSolver:  Solving for p, Initial residual = 0.00997675, Final residual = 3.10898e-07, No Iterations 3
diagonal:  Solving for rho, Initial residual = 0, Final residual = 0, No Iterations 0
time step continuity errors : sum local = 5.63769e-07, global = -8.92249e-08, cumulative = -1.01159e-05
PIMPLE: Iteration 2
smoothSolver:  Solving for Ux, Initial residual = 0.0019809, Final residual = 1.00359e-08, No Iterations 1
smoothSolver:  Solving for Uy, Initial residual = 0.00262891, Final residual = 1.07229e-09, No Iterations 1
smoothSolver:  Solving for e, Initial residual = 0.0138497, Final residual = 3.47557e-06, No Iterations 2
smoothSolver:  Solving for p, Initial residual = 0.00631329, Final residual = 2.04802e-07, No Iterations 3
diagonal:  Solving for rho, Initial residual = 0, Final residual = 0, No Iterations 0
time step continuity errors : sum local = 3.75395e-07, global = -2.46296e-07, cumulative = -1.03622e-05
ExecutionTime = 0.11 s  ClockTime = 1 s

Time = 0.34

Courant Number mean: 0.219784 max: 0.650855
diagonal:  Solving for rho, Initial residual = 0, Final residual = 0, No Iterations 0
PIMPLE: Iteration 1
smoothSolver:  Solving for Ux, Initial residual = 0.00861127, Final residual = 1.3434e-08, No Iterations 1
smoothSolver:  Solving for Uy, Initial residual = 0.0189346, Final residual = 5.44393e-09, No Iterations 1
smoothSolver:  Solving for e, Initial residual = 0.0199836, Final residual = 6.93178e-07, No Iterations 3
smoothSolver:  Solving for p, Initial residual = 0.0101822, Final residual = 2.92249e-07, No Iterations 3
diagonal:  Solving for rho, Initial residual = 0, Final residual = 0, No Iterations 0
time step continuity errors : sum local = 5.31872e-07, global = -9.10522e-08, cumulative = -1.04533e-05
PIMPLE: Iteration 2
smoothSolver:  Solving for Ux, Initial residual = 0.00202676, Final residual = 7.866e-09, No Iterations 1
smoothSolver:  Solving for Uy, Initial residual = 0.00269725, Final residual = 5.64869e-10, No Iterations 1
smoothSolver:  Solving for e, Initial residual = 0.0141861, Final residual = 2.7954e-06, No Iterations 2
smoothSolver:  Solving for p, Initial residual = 0.00634749, Final residual = 2.08083e-07, No Iterations 3
diagonal:  Solving for rho, Initial residual = 0, Final residual = 0, No Iterations 0
time step continuity errors : sum local = 3.82307e-07, global = -2.41586e-07, cumulative = -1.06949e-05
ExecutionTime = 0.11 s  ClockTime = 1 s

Time = 0.35

Courant Number mean: 0.220261 max: 0.723992
diagonal:  Solving for rho, Initial residual = 0, Final residual = 0, No Iterations 0
PIMPLE: Iteration 1
smoothSolver:  Solving for Ux, Initial residual = 0.00840423, Final residual = 1.24477e-08, No Iterations 1
smoothSolver:  Solving for Uy, Initial residual = 0.018878, Final residual = 6.49719e-09, No Iterations 1
smoothSolver:  Solving for e, Initial residual = 0.0201834, Final residual = 8.12384e-07, No Iterations 3
smoothSolver:  Solving for p, Initial residual = 0.0105292, Final residual = 2.38889e-07, No Iterations 3
diagonal:  Solving for rho, Initial residual = 0, Final residual = 0, No Iterations 0
time step continuity errors : sum local = 4.36015e-07, global = -1.84713e-08, cumulative = -1.07133e-05
PIMPLE: Iteration 2
smoothSolver:  Solving for Ux, Initial residual = 0.00212025, Final residual = 4.90354e-09, No Iterations 1
smoothSolver:  Solving for Uy, Initial residual = 0.00283952, Final residual = 2.66334e-10, No Iterations 1
smoothSolver:  Solving for e, Initial residual = 0.0141745, Final residual = 4.08616e-06, No Iterations 2
smoothSolver:  Solving for p, Initial residual = 0.006269, Final residual = 1.98291e-07, No Iterations 3
diagonal:  Solving for rho, Initial residual = 0, Final residual = 0, No Iterations 0
time step continuity errors : sum local = 3.64715e-07, global = -2.4526e-07, cumulative = -1.09586e-05
ExecutionTime = 0.12 s  ClockTime = 1 s

Time = 0.36

Courant Number mean: 0.220374 max: 0.639461
diagonal:  Solving for rho, Initial residual = 0, Final residual = 0, No Iterations 0
PIMPLE: Iteration 1
smoothSolver:  Solving for Ux, Initial residual = 0.00817149, Final residual = 1.19227e-08, No Iterations 1
smoothSolver:  Solving for Uy, Initial residual = 0.0182499, Final residual = 8.52459e-09, No Iterations 1
smoothSolver:  Solving for e, Initial residual = 0.0204583, Final residual = 6.55895e-07, No Iterations 3
smoothSolver:  Solving for p, Initial residual = 0.0105952, Final residual = 3.29559e-07, No Iterations 3
diagonal:  Solving for rho, Initial residual = 0, Final residual = 0, No Iterations 0
time step continuity errors : sum local = 6.025e-07, global = -1.03753e-07, cumulative = -1.10623e-05
PIMPLE: Iteration 2
smoothSolver:  Solving for Ux, Initial residual = 0.00195108, Final residual = 3.28912e-09, No Iterations 1
smoothSolver:  Solving for Uy, Initial residual = 0.002523, Final residual = 3.60436e-10, No Iterations 1
smoothSolver:  Solving for e, Initial residual = 0.0145981, Final residual = 2.80446e-06, No Iterations 2
smoothSolver:  Solving for p, Initial residual = 0.00646671, Final residual = 2.044e-07, No Iterations 3
diagonal:  Solving for rho, Initial residual = 0, Final residual = 0, No Iterations 0
time step continuity errors : sum local = 3.76629e-07, global = -2.42843e-07, cumulative = -1.13052e-05
ExecutionTime = 0.12 s  ClockTime = 1 s

Time = 0.37

Courant Number mean: 0.220794 max: 0.656287
diagonal:  Solving for rho, Initial residual = 0, Final residual = 0, No Iterations 0
PIMPLE: Iteration 1
smoothSolver:  Solving for Ux, Initial residual = 0.00800735, Final residual = 1.53856e-08, No Iterations 1
smoothSolver:  Solving for Uy, Initial residual = 0.0183367, Final residual = 1.62905e-08, No Iterations 1
smoothSolver:  Solving for e, Initial residual = 0.0204873, Final residual = 6.85554e-07, No Iterations 3
smoothSolver:  Solving for p, Initial residual = 0.0108144, Final residual = 3.57117e-07, No Iterations 3
diagonal:  Solving for rho, Initial residual = 0, Final residual = 0, No Iterations 0
time step continuity errors : sum local = 6.53654e-07, global = -1.49313e-07, cumulative = -1.14545e-05
PIMPLE: Iteration 2
smoothSolver:  Solving for Ux, Initial residual = 0.0019665, Final residual = 3.13614e-09, No Iterations 1
smoothSolver:  Solving for Uy, Initial residual = 0.00252636, Final residual = 6.47681e-10, No Iterations 1
smoothSolver:  Solving for e, Initial residual = 0.0147637, Final residual = 2.34982e-06, No Iterations 2
smoothSolver:  Solving for p, Initial residual = 0.00681625, Final residual = 2.08242e-07, No Iterations 3
diagonal:  Solving for rho, Initial residual = 0, Final residual = 0, No Iterations 0
time step continuity errors : sum local = 3.84027e-07, global = -2.71826e-07, cumulative = -1.17263e-05
ExecutionTime = 0.12 s  ClockTime = 1 s

Time = 0.38

Courant Number mean: 0.221286 max: 0.705118
diagonal:  Solving for rho, Initial residual = 0, Final residual = 0, No Iterations 0
PIMPLE: Iteration 1
smoothSolver:  Solving for Ux, Initial residual = 0.00787909, Final residual = 2.34275e-08, No Iterations 1
smoothSolver:  Solving for Uy, Initial residual = 0.0182595, Final residual = 3.6151e-08, No Iterations 1
smoothSolver:  Solving for e, Initial residual = 0.0206056, Final residual = 7.22716e-07, No Iterations 3
smoothSolver:  Solving for p, Initial residual = 0.0110928, Final residual = 1.8879e-07, No Iterations 3
diagonal:  Solving for rho, Initial residual = 0, Final residual = 0, No Iterations 0
time step continuity errors : sum local = 3.45996e-07, global = 6.17918e-09, cumulative = -1.17201e-05
PIMPLE: Iteration 2
smoothSolver:  Solving for Ux, Initial residual = 0.00212702, Final residual = 3.40311e-09, No Iterations 1
smoothSolver:  Solving for Uy, Initial residual = 0.0027158, Final residual = 1.69805e-09, No Iterations 1
smoothSolver:  Solving for e, Initial residual = 0.0136417, Final residual = 2.62429e-06, No Iterations 2
smoothSolver:  Solving for p, Initial residual = 0.00588006, Final residual = 2.15496e-07, No Iterations 3
diagonal:  Solving for rho, Initial residual = 0, Final residual = 0, No Iterations 0
time step continuity errors : sum local = 3.97234e-07, global = -2.78161e-07, cumulative = -1.19983e-05
ExecutionTime = 0.12 s  ClockTime = 1 s

Time = 0.39

Courant Number mean: 0.221389 max: 0.622614
diagonal:  Solving for rho, Initial residual = 0, Final residual = 0, No Iterations 0
PIMPLE: Iteration 1
smoothSolver:  Solving for Ux, Initial residual = 0.00766263, Final residual = 4.02289e-08, No Iterations 1
smoothSolver:  Solving for Uy, Initial residual = 0.0175748, Final residual = 7.00011e-08, No Iterations 1
smoothSolver:  Solving for e, Initial residual = 0.0199653, Final residual = 5.82331e-07, No Iterations 3
smoothSolver:  Solving for p, Initial residual = 0.0108755, Final residual = 3.18844e-07, No Iterations 3
diagonal:  Solving for rho, Initial residual = 0, Final residual = 0, No Iterations 0
time step continuity errors : sum local = 5.84366e-07, global = -1.21757e-07, cumulative = -1.21201e-05
PIMPLE: Iteration 2
smoothSolver:  Solving for Ux, Initial residual = 0.00181263, Final residual = 3.65099e-09, No Iterations 1
smoothSolver:  Solving for Uy, Initial residual = 0.00222245, Final residual = 2.21437e-09, No Iterations 1
smoothSolver:  Solving for e, Initial residual = 0.0132136, Final residual = 2.2759e-06, No Iterations 2
smoothSolver:  Solving for p, Initial residual = 0.00636903, Final residual = 2.35673e-07, No Iterations 3
diagonal:  Solving for rho, Initial residual = 0, Final residual = 0, No Iterations 0
time step continuity errors : sum local = 4.34685e-07, global = -2.93305e-07, cumulative = -1.24134e-05
ExecutionTime = 0.13 s  ClockTime = 1 s

Time = 0.4

Courant Number mean: 0.221868 max: 0.616755
diagonal:  Solving for rho, Initial residual = 0, Final residual = 0, No Iterations 0
PIMPLE: Iteration 1
smoothSolver:  Solving for Ux, Initial residual = 0.00758237, Final residual = 5.51027e-08, No Iterations 1
smoothSolver:  Solving for Uy, Initial residual = 0.0175934, Final residual = 1.12546e-07, No Iterations 1
smoothSolver:  Solving for e, Initial residual = 0.0196929, Final residual = 6.04534e-07, No Iterations 3
smoothSolver:  Solving for p, Initial residual = 0.0108178, Final residual = 2.79213e-07, No Iterations 3
diagonal:  Solving for rho, Initial residual = 0, Final residual = 0, No Iterations 0
time step continuity errors : sum local = 5.11842e-07, global = -1.1442e-07, cumulative = -1.25278e-05
PIMPLE: Iteration 2
smoothSolver:  Solving for Ux, Initial residual = 0.00183074, Final residual = 3.92033e-09, No Iterations 1
smoothSolver:  Solving for Uy, Initial residual = 0.0022683, Final residual = 2.36381e-09, No Iterations 1
smoothSolver:  Solving for e, Initial residual = 0.0129264, Final residual = 2.05531e-06, No Iterations 2
smoothSolver:  Solving for p, Initial residual = 0.00630202, Final residual = 2.40401e-07, No Iterations 3
diagonal:  Solving for rho, Initial residual = 0, Final residual = 0, No Iterations 0
time step continuity errors : sum local = 4.43219e-07, global = -2.8961e-07, cumulative = -1.28174e-05
ExecutionTime = 0.13 s  ClockTime = 1 s

Time = 0.41

Courant Number mean: 0.222296 max: 0.611154
diagonal:  Solving for rho, Initial residual = 0, Final residual = 0, No Iterations 0
PIMPLE: Iteration 1
smoothSolver:  Solving for Ux, Initial residual = 0.00746735, Final residual = 7.20391e-08, No Iterations 1
smoothSolver:  Solving for Uy, Initial residual = 0.017562, Final residual = 1.59851e-07, No Iterations 1
smoothSolver:  Solving for e, Initial residual = 0.019543, Final residual = 5.70659e-07, No Iterations 3
smoothSolver:  Solving for p, Initial residual = 0.0108235, Final residual = 2.05968e-07, No Iterations 3
diagonal:  Solving for rho, Initial residual = 0, Final residual = 0, No Iterations 0
time step continuity errors : sum local = 3.7743e-07, global = -4.77785e-08, cumulative = -1.28652e-05
PIMPLE: Iteration 2
smoothSolver:  Solving for Ux, Initial residual = 0.00183152, Final residual = 4.33606e-09, No Iterations 1
smoothSolver:  Solving for Uy, Initial residual = 0.00226273, Final residual = 2.39824e-09, No Iterations 1
smoothSolver:  Solving for e, Initial residual = 0.0124528, Final residual = 2.46414e-06, No Iterations 2
smoothSolver:  Solving for p, Initial residual = 0.00574129, Final residual = 2.11341e-07, No Iterations 3
diagonal:  Solving for rho, Initial residual = 0, Final residual = 0, No Iterations 0
time step continuity errors : sum local = 3.89316e-07, global = -2.056e-07, cumulative = -1.30708e-05
ExecutionTime = 0.13 s  ClockTime = 1 s

Time = 0.42

Courant Number mean: 0.222413 max: 0.6096
diagonal:  Solving for rho, Initial residual = 0, Final residual = 0, No Iterations 0
PIMPLE: Iteration 1
smoothSolver:  Solving for Ux, Initial residual = 0.00739955, Final residual = 9.16053e-08, No Iterations 1
smoothSolver:  Solving for Uy, Initial residual = 0.0174183, Final residual = 2.12847e-07, No Iterations 1
smoothSolver:  Solving for e, Initial residual = 0.0191488, Final residual = 5.46116e-07, No Iterations 3
smoothSolver:  Solving for p, Initial residual = 0.0108236, Final residual = 2.55254e-07, No Iterations 3
diagonal:  Solving for rho, Initial residual = 0, Final residual = 0, No Iterations 0
time step continuity errors : sum local = 4.67053e-07, global = -1.15254e-07, cumulative = -1.3186e-05
PIMPLE: Iteration 2
smoothSolver:  Solving for Ux, Initial residual = 0.0017037, Final residual = 5.63805e-09, No Iterations 1
smoothSolver:  Solving for Uy, Initial residual = 0.00205279, Final residual = 2.69641e-09, No Iterations 1
smoothSolver:  Solving for e, Initial residual = 0.012724, Final residual = 2.75748e-06, No Iterations 2
smoothSolver:  Solving for p, Initial residual = 0.00634781, Final residual = 2.25515e-07, No Iterations 3
diagonal:  Solving for rho, Initial residual = 0, Final residual = 0, No Iterations 0
time step continuity errors : sum local = 4.14672e-07, global = -2.89893e-07, cumulative = -1.34759e-05
ExecutionTime = 0.13 s  ClockTime = 1 s

Time = 0.43

Courant Number mean: 0.222889 max: 0.610778
diagonal:  Solving for rho, Initial residual = 0, Final residual = 0, No Iterations 0
PIMPLE: Iteration 1
smoothSolver:  Solving for Ux, Initial residual = 0.0073092, Final residual = 1.27696e-07, No Iterations 1
smoothSolver:  Solving for Uy, Initial residual = 0.0175489, Final residual = 2.80705e-07, No Iterations 1
smoothSolver:  Solving for e, Initial residual = 0.0195245, Final residual = 5.60817e-07, No Iterations 3
smoothSolver:  Solving for p, Initial residual = 0.0110844, Final residual = 2.16953e-07, No Iterations 3
diagonal:  Solving for rho, Initial residual = 0, Final residual = 0, No Iterations 0
time step continuity errors : sum local = 3.96435e-07, global = -1.04454e-07, cumulative = -1.35804e-05
PIMPLE: Iteration 2
smoothSolver:  Solving for Ux, Initial residual = 0.00173127, Final residual = 7.11382e-09, No Iterations 1
smoothSolver:  Solving for Uy, Initial residual = 0.00211704, Final residual = 5.18096e-09, No Iterations 1
smoothSolver:  Solving for e, Initial residual = 0.0130022, Final residual = 2.89043e-06, No Iterations 2
smoothSolver:  Solving for p, Initial residual = 0.00631528, Final residual = 2.32284e-07, No Iterations 3
diagonal:  Solving for rho, Initial residual = 0, Final residual = 0, No Iterations 0
time step continuity errors : sum local = 4.26318e-07, global = -2.82986e-07, cumulative = -1.38634e-05
ExecutionTime = 0.14 s  ClockTime = 1 s

Time = 0.44

Courant Number mean: 0.223295 max: 0.61165
diagonal:  Solving for rho, Initial residual = 0, Final residual = 0, No Iterations 0
PIMPLE: Iteration 1
smoothSolver:  Solving for Ux, Initial residual = 0.00721481, Final residual = 1.70408e-07, No Iterations 1
smoothSolver:  Solving for Uy, Initial residual = 0.0175541, Final residual = 3.58967e-07, No Iterations 1
smoothSolver:  Solving for e, Initial residual = 0.019737, Final residual = 5.50621e-07, No Iterations 3
smoothSolver:  Solving for p, Initial residual = 0.0113051, Final residual = 2.00403e-07, No Iterations 3
diagonal:  Solving for rho, Initial residual = 0, Final residual = 0, No Iterations 0
time step continuity errors : sum local = 3.65463e-07, global = -9.70696e-08, cumulative = -1.39604e-05
PIMPLE: Iteration 2
smoothSolver:  Solving for Ux, Initial residual = 0.00173699, Final residual = 8.36049e-09, No Iterations 1
smoothSolver:  Solving for Uy, Initial residual = 0.00214028, Final residual = 7.19568e-09, No Iterations 1
smoothSolver:  Solving for e, Initial residual = 0.0128595, Final residual = 2.37189e-06, No Iterations 2
smoothSolver:  Solving for p, Initial residual = 0.00617768, Final residual = 2.21431e-07, No Iterations 3
diagonal:  Solving for rho, Initial residual = 0, Final residual = 0, No Iterations 0
time step continuity errors : sum local = 4.0535e-07, global = -2.20522e-07, cumulative = -1.4181e-05
ExecutionTime = 0.14 s  ClockTime = 1 s

Time = 0.45

Courant Number mean: 0.223527 max: 0.611636
diagonal:  Solving for rho, Initial residual = 0, Final residual = 0, No Iterations 0
PIMPLE: Iteration 1
smoothSolver:  Solving for Ux, Initial residual = 0.0071107, Final residual = 2.16302e-07, No Iterations 1
smoothSolver:  Solving for Uy, Initial residual = 0.0174492, Final residual = 4.37291e-07, No Iterations 1
smoothSolver:  Solving for e, Initial residual = 0.0195339, Final residual = 5.47447e-07, No Iterations 3
smoothSolver:  Solving for p, Initial residual = 0.0113497, Final residual = 2.39019e-07, No Iterations 3
diagonal:  Solving for rho, Initial residual = 0, Final residual = 0, No Iterations 0
time step continuity errors : sum local = 4.34649e-07, global = -1.46491e-07, cumulative = -1.43274e-05
PIMPLE: Iteration 2
smoothSolver:  Solving for Ux, Initial residual = 0.00168109, Final residual = 1.19721e-08, No Iterations 1
smoothSolver:  Solving for Uy, Initial residual = 0.00210814, Final residual = 1.0847e-08, No Iterations 1
smoothSolver:  Solving for e, Initial residual = 0.0132166, Final residual = 2.78843e-06, No Iterations 2
smoothSolver:  Solving for p, Initial residual = 0.00659848, Final residual = 2.3036e-07, No Iterations 3
diagonal:  Solving for rho, Initial residual = 0, Final residual = 0, No Iterations 0
time step continuity errors : sum local = 4.20496e-07, global = -2.54346e-07, cumulative = -1.45818e-05
ExecutionTime = 0.14 s  ClockTime = 1 s

Time = 0.46

Courant Number mean: 0.224041 max: 0.613989
diagonal:  Solving for rho, Initial residual = 0, Final residual = 0, No Iterations 0
PIMPLE: Iteration 1
smoothSolver:  Solving for Ux, Initial residual = 0.00702976, Final residual = 2.69396e-07, No Iterations 1
smoothSolver:  Solving for Uy, Initial residual = 0.0173748, Final residual = 5.19347e-07, No Iterations 1
smoothSolver:  Solving for e, Initial residual = 0.019983, Final residual = 6.08652e-07, No Iterations 3
smoothSolver:  Solving for p, Initial residual = 0.011579, Final residual = 2.04635e-07, No Iterations 3
diagonal:  Solving for rho, Initial residual = 0, Final residual = 0, No Iterations 0
time step continuity errors : sum local = 3.71105e-07, global = -9.15057e-08, cumulative = -1.46733e-05
PIMPLE: Iteration 2
smoothSolver:  Solving for Ux, Initial residual = 0.00176499, Final residual = 1.44651e-08, No Iterations 1
smoothSolver:  Solving for Uy, Initial residual = 0.0021021, Final residual = 1.20872e-08, No Iterations 1
smoothSolver:  Solving for e, Initial residual = 0.0133045, Final residual = 3.01247e-06, No Iterations 2
smoothSolver:  Solving for p, Initial residual = 0.0063832, Final residual = 2.13782e-07, No Iterations 3
diagonal:  Solving for rho, Initial residual = 0, Final residual = 0, No Iterations 0
time step continuity errors : sum local = 3.88779e-07, global = -2.13811e-07, cumulative = -1.48871e-05
ExecutionTime = 0.14 s  ClockTime = 1 s

Time = 0.47

Courant Number mean: 0.224264 max: 0.611091
diagonal:  Solving for rho, Initial residual = 0, Final residual = 0, No Iterations 0
PIMPLE: Iteration 1
smoothSolver:  Solving for Ux, Initial residual = 0.00690684, Final residual = 3.2665e-07, No Iterations 1
smoothSolver:  Solving for Uy, Initial residual = 0.0172358, Final residual = 5.88129e-07, No Iterations 1
smoothSolver:  Solving for e, Initial residual = 0.0198624, Final residual = 5.66474e-07, No Iterations 3
smoothSolver:  Solving for p, Initial residual = 0.011635, Final residual = 2.18479e-07, No Iterations 3
diagonal:  Solving for rho, Initial residual = 0, Final residual = 0, No Iterations 0
time step continuity errors : sum local = 3.94609e-07, global = -1.32015e-07, cumulative = -1.50191e-05
PIMPLE: Iteration 2
smoothSolver:  Solving for Ux, Initial residual = 0.00166191, Final residual = 1.77872e-08, No Iterations 1
smoothSolver:  Solving for Uy, Initial residual = 0.00207226, Final residual = 2.18452e-08, No Iterations 1
smoothSolver:  Solving for e, Initial residual = 0.0136517, Final residual = 3.34365e-06, No Iterations 2
smoothSolver:  Solving for p, Initial residual = 0.00672119, Final residual = 2.29988e-07, No Iterations 3
diagonal:  Solving for rho, Initial residual = 0, Final residual = 0, No Iterations 0
time step continuity errors : sum local = 4.16533e-07, global = -2.56621e-07, cumulative = -1.52757e-05
ExecutionTime = 0.15 s  ClockTime = 1 s

Time = 0.48

Courant Number mean: 0.224699 max: 0.610161
diagonal:  Solving for rho, Initial residual = 0, Final residual = 0, No Iterations 0
PIMPLE: Iteration 1
smoothSolver:  Solving for Ux, Initial residual = 0.00688641, Final residual = 3.66102e-07, No Iterations 1
smoothSolver:  Solving for Uy, Initial residual = 0.0171975, Final residual = 6.44018e-07, No Iterations 1
smoothSolver:  Solving for e, Initial residual = 0.0200887, Final residual = 5.83345e-07, No Iterations 3
smoothSolver:  Solving for p, Initial residual = 0.0117987, Final residual = 2.30949e-07, No Iterations 3
diagonal:  Solving for rho, Initial residual = 0, Final residual = 0, No Iterations 0
time step continuity errors : sum local = 4.15461e-07, global = -1.49479e-07, cumulative = -1.54252e-05
PIMPLE: Iteration 2
smoothSolver:  Solving for Ux, Initial residual = 0.00169118, Final residual = 1.74665e-08, No Iterations 1
smoothSolver:  Solving for Uy, Initial residual = 0.00209326, Final residual = 1.54669e-08, No Iterations 1
smoothSolver:  Solving for e, Initial residual = 0.0136831, Final residual = 3.60879e-06, No Iterations 2
smoothSolver:  Solving for p, Initial residual = 0.00675381, Final residual = 2.05093e-07, No Iterations 3
diagonal:  Solving for rho, Initial residual = 0, Final residual = 0, No Iterations 0
time step continuity errors : sum local = 3.698e-07, global = -2.39932e-07, cumulative = -1.56652e-05
ExecutionTime = 0.15 s  ClockTime = 1 s

Time = 0.49

Courant Number mean: 0.225106 max: 0.610457
diagonal:  Solving for rho, Initial residual = 0, Final residual = 0, No Iterations 0
PIMPLE: Iteration 1
smoothSolver:  Solving for Ux, Initial residual = 0.00684921, Final residual = 4.347e-07, No Iterations 1
smoothSolver:  Solving for Uy, Initial residual = 0.0170714, Final residual = 7.17096e-07, No Iterations 1
smoothSolver:  Solving for e, Initial residual = 0.0201029, Final residual = 5.68197e-07, No Iterations 3
smoothSolver:  Solving for p, Initial residual = 0.0119247, Final residual = 2.17682e-07, No Iterations 3
diagonal:  Solving for rho, Initial residual = 0, Final residual = 0, No Iterations 0
time step continuity errors : sum local = 3.89821e-07, global = -1.56285e-07, cumulative = -1.58214e-05
PIMPLE: Iteration 2
smoothSolver:  Solving for Ux, Initial residual = 0.00167542, Final residual = 2.54274e-08, No Iterations 1
smoothSolver:  Solving for Uy, Initial residual = 0.00207177, Final residual = 2.36676e-08, No Iterations 1
smoothSolver:  Solving for e, Initial residual = 0.0135626, Final residual = 3.54961e-06, No Iterations 2
smoothSolver:  Solving for p, Initial residual = 0.00677872, Final residual = 2.03167e-07, No Iterations 3
diagonal:  Solving for rho, Initial residual = 0, Final residual = 0, No Iterations 0
time step continuity errors : sum local = 3.64539e-07, global = -2.27557e-07, cumulative = -1.6049e-05
ExecutionTime = 0.15 s  ClockTime = 1 s

Time = 0.5

Courant Number mean: 0.225404 max: 0.626403
diagonal:  Solving for rho, Initial residual = 0, Final residual = 0, No Iterations 0
PIMPLE: Iteration 1
smoothSolver:  Solving for Ux, Initial residual = 0.00680935, Final residual = 4.68771e-07, No Iterations 1
smoothSolver:  Solving for Uy, Initial residual = 0.0169526, Final residual = 7.47855e-07, No Iterations 1
smoothSolver:  Solving for e, Initial residual = 0.0201205, Final residual = 6.02684e-07, No Iterations 3
smoothSolver:  Solving for p, Initial residual = 0.0120749, Final residual = 2.1019e-07, No Iterations 3
diagonal:  Solving for rho, Initial residual = 0, Final residual = 0, No Iterations 0
time step continuity errors : sum local = 3.74678e-07, global = -1.366e-07, cumulative = -1.61856e-05
PIMPLE: Iteration 2
[...]
smoothSolver:  Solving for p, Initial residual = 0.0152212, Final residual = 2.59624e-07, No Iterations 3
diagonal:  Solving for rho, Initial residual = 0, Final residual = 0, No Iterations 0
time step continuity errors : sum local = 2.26604e-07, global = -1.42192e-07, cumulative = -0.000166301
PIMPLE: Iteration 2
smoothSolver:  Solving for Ux, Initial residual = 0.00178431, Final residual = 6.27832e-09, No Iterations 1
smoothSolver:  Solving for Uy, Initial residual = 0.00104718, Final residual = 4.79844e-09, No Iterations 1
smoothSolver:  Solving for e, Initial residual = 0.0138258, Final residual = 4.41272e-06, No Iterations 2
smoothSolver:  Solving for p, Initial residual = 0.0114378, Final residual = 4.44023e-07, No Iterations 3
diagonal:  Solving for rho, Initial residual = 0, Final residual = 0, No Iterations 0
time step continuity errors : sum local = 3.85893e-07, global = -1.36404e-07, cumulative = -0.000166438
ExecutionTime = 1.07 s  ClockTime = 2 s

Time = 3.88

Courant Number mean: 0.186379 max: 0.651155
diagonal:  Solving for rho, Initial residual = 0, Final residual = 0, No Iterations 0
PIMPLE: Iteration 1
smoothSolver:  Solving for Ux, Initial residual = 0.00259255, Final residual = 7.15672e-07, No Iterations 1
smoothSolver:  Solving for Uy, Initial residual = 0.0013302, Final residual = 3.68874e-07, No Iterations 1
smoothSolver:  Solving for e, Initial residual = 0.012063, Final residual = 5.83608e-07, No Iterations 3
smoothSolver:  Solving for p, Initial residual = 0.0144515, Final residual = 3.16585e-07, No Iterations 3
diagonal:  Solving for rho, Initial residual = 0, Final residual = 0, No Iterations 0
time step continuity errors : sum local = 2.76103e-07, global = -1.81082e-07, cumulative = -0.000166619
PIMPLE: Iteration 2
smoothSolver:  Solving for Ux, Initial residual = 0.00156812, Final residual = 5.51886e-09, No Iterations 1
smoothSolver:  Solving for Uy, Initial residual = 0.000938337, Final residual = 4.57424e-09, No Iterations 1
smoothSolver:  Solving for e, Initial residual = 0.0134474, Final residual = 5.65543e-06, No Iterations 2
smoothSolver:  Solving for p, Initial residual = 0.012004, Final residual = 4.44882e-07, No Iterations 3
diagonal:  Solving for rho, Initial residual = 0, Final residual = 0, No Iterations 0
time step continuity errors : sum local = 3.86795e-07, global = -1.81954e-07, cumulative = -0.000166801
ExecutionTime = 1.07 s  ClockTime = 2 s

Time = 3.89

Courant Number mean: 0.1864 max: 0.651173
diagonal:  Solving for rho, Initial residual = 0, Final residual = 0, No Iterations 0
PIMPLE: Iteration 1
smoothSolver:  Solving for Ux, Initial residual = 0.00262125, Final residual = 7.12414e-07, No Iterations 1
smoothSolver:  Solving for Uy, Initial residual = 0.00138101, Final residual = 3.63603e-07, No Iterations 1
smoothSolver:  Solving for e, Initial residual = 0.012318, Final residual = 5.56065e-07, No Iterations 3
smoothSolver:  Solving for p, Initial residual = 0.0144084, Final residual = 3.14372e-07, No Iterations 3
diagonal:  Solving for rho, Initial residual = 0, Final residual = 0, No Iterations 0
time step continuity errors : sum local = 2.73717e-07, global = -1.99886e-07, cumulative = -0.000167
PIMPLE: Iteration 2
smoothSolver:  Solving for Ux, Initial residual = 0.00154577, Final residual = 5.91291e-09, No Iterations 1
smoothSolver:  Solving for Uy, Initial residual = 0.000928387, Final residual = 4.3191e-09, No Iterations 1
smoothSolver:  Solving for e, Initial residual = 0.0134753, Final residual = 5.19312e-06, No Iterations 2
smoothSolver:  Solving for p, Initial residual = 0.0123292, Final residual = 4.37253e-07, No Iterations 3
diagonal:  Solving for rho, Initial residual = 0, Final residual = 0, No Iterations 0
time step continuity errors : sum local = 3.79615e-07, global = -1.67156e-07, cumulative = -0.000167168
ExecutionTime = 1.07 s  ClockTime = 2 s

Time = 3.9

Courant Number mean: 0.186412 max: 0.651193
diagonal:  Solving for rho, Initial residual = 0, Final residual = 0, No Iterations 0
PIMPLE: Iteration 1
smoothSolver:  Solving for Ux, Initial residual = 0.00271153, Final residual = 7.08851e-07, No Iterations 1
smoothSolver:  Solving for Uy, Initial residual = 0.00144051, Final residual = 3.6064e-07, No Iterations 1
smoothSolver:  Solving for e, Initial residual = 0.0125374, Final residual = 6.80765e-07, No Iterations 3
smoothSolver:  Solving for p, Initial residual = 0.0147929, Final residual = 3.60346e-07, No Iterations 3
diagonal:  Solving for rho, Initial residual = 0, Final residual = 0, No Iterations 0
time step continuity errors : sum local = 3.1401e-07, global = -2.33701e-07, cumulative = -0.000167401
PIMPLE: Iteration 2
smoothSolver:  Solving for Ux, Initial residual = 0.00165865, Final residual = 5.4953e-09, No Iterations 1
smoothSolver:  Solving for Uy, Initial residual = 0.00100454, Final residual = 4.87074e-09, No Iterations 1
smoothSolver:  Solving for e, Initial residual = 0.0145792, Final residual = 4.37689e-06, No Iterations 2
smoothSolver:  Solving for p, Initial residual = 0.0129361, Final residual = 5.1225e-07, No Iterations 3
diagonal:  Solving for rho, Initial residual = 0, Final residual = 0, No Iterations 0
time step continuity errors : sum local = 4.44895e-07, global = -2.2924e-07, cumulative = -0.000167631
ExecutionTime = 1.07 s  ClockTime = 2 s

Time = 3.91

Courant Number mean: 0.186734 max: 0.651213
diagonal:  Solving for rho, Initial residual = 0, Final residual = 0, No Iterations 0
PIMPLE: Iteration 1
smoothSolver:  Solving for Ux, Initial residual = 0.00269962, Final residual = 7.05645e-07, No Iterations 1
smoothSolver:  Solving for Uy, Initial residual = 0.00148536, Final residual = 3.56804e-07, No Iterations 1
smoothSolver:  Solving for e, Initial residual = 0.0128227, Final residual = 6.98992e-07, No Iterations 3
smoothSolver:  Solving for p, Initial residual = 0.0150503, Final residual = 2.88879e-07, No Iterations 3
diagonal:  Solving for rho, Initial residual = 0, Final residual = 0, No Iterations 0
time step continuity errors : sum local = 2.51766e-07, global = -1.71343e-07, cumulative = -0.000167802
PIMPLE: Iteration 2
smoothSolver:  Solving for Ux, Initial residual = 0.00177153, Final residual = 5.51608e-09, No Iterations 1
smoothSolver:  Solving for Uy, Initial residual = 0.00105765, Final residual = 3.67846e-09, No Iterations 1
smoothSolver:  Solving for e, Initial residual = 0.0137366, Final residual = 4.39858e-06, No Iterations 2
smoothSolver:  Solving for p, Initial residual = 0.0118933, Final residual = 4.43907e-07, No Iterations 3
diagonal:  Solving for rho, Initial residual = 0, Final residual = 0, No Iterations 0
time step continuity errors : sum local = 3.85522e-07, global = -1.39014e-07, cumulative = -0.000167941
ExecutionTime = 1.08 s  ClockTime = 2 s

Time = 3.92

Courant Number mean: 0.186328 max: 0.651231
diagonal:  Solving for rho, Initial residual = 0, Final residual = 0, No Iterations 0
PIMPLE: Iteration 1
smoothSolver:  Solving for Ux, Initial residual = 0.00262366, Final residual = 7.0269e-07, No Iterations 1
smoothSolver:  Solving for Uy, Initial residual = 0.00139957, Final residual = 3.55711e-07, No Iterations 1
smoothSolver:  Solving for e, Initial residual = 0.0122664, Final residual = 6.37367e-07, No Iterations 3
smoothSolver:  Solving for p, Initial residual = 0.0148073, Final residual = 3.2621e-07, No Iterations 3
diagonal:  Solving for rho, Initial residual = 0, Final residual = 0, No Iterations 0
time step continuity errors : sum local = 2.83975e-07, global = -2.18635e-07, cumulative = -0.00016816
PIMPLE: Iteration 2
smoothSolver:  Solving for Ux, Initial residual = 0.00165093, Final residual = 4.46192e-09, No Iterations 1
smoothSolver:  Solving for Uy, Initial residual = 0.00099871, Final residual = 5.09397e-09, No Iterations 1
smoothSolver:  Solving for e, Initial residual = 0.0140047, Final residual = 5.31432e-06, No Iterations 2
smoothSolver:  Solving for p, Initial residual = 0.0124919, Final residual = 4.62726e-07, No Iterations 3
diagonal:  Solving for rho, Initial residual = 0, Final residual = 0, No Iterations 0
time step continuity errors : sum local = 4.01604e-07, global = -1.84288e-07, cumulative = -0.000168344
ExecutionTime = 1.08 s  ClockTime = 2 s

Time = 3.93

Courant Number mean: 0.186427 max: 0.65125
diagonal:  Solving for rho, Initial residual = 0, Final residual = 0, No Iterations 0
PIMPLE: Iteration 1
smoothSolver:  Solving for Ux, Initial residual = 0.00264366, Final residual = 6.97536e-07, No Iterations 1
smoothSolver:  Solving for Uy, Initial residual = 0.00141131, Final residual = 3.53937e-07, No Iterations 1
smoothSolver:  Solving for e, Initial residual = 0.0127223, Final residual = 6.54674e-07, No Iterations 3
smoothSolver:  Solving for p, Initial residual = 0.0150362, Final residual = 3.35467e-07, No Iterations 3
diagonal:  Solving for rho, Initial residual = 0, Final residual = 0, No Iterations 0
time step continuity errors : sum local = 2.92128e-07, global = -1.76316e-07, cumulative = -0.00016852
PIMPLE: Iteration 2
smoothSolver:  Solving for Ux, Initial residual = 0.00169131, Final residual = 5.30548e-09, No Iterations 1
smoothSolver:  Solving for Uy, Initial residual = 0.0010155, Final residual = 4.36346e-09, No Iterations 1
smoothSolver:  Solving for e, Initial residual = 0.0142304, Final residual = 5.54367e-06, No Iterations 2
smoothSolver:  Solving for p, Initial residual = 0.0123341, Final residual = 4.78031e-07, No Iterations 3
diagonal:  Solving for rho, Initial residual = 0, Final residual = 0, No Iterations 0
time step continuity errors : sum local = 4.14863e-07, global = -1.65504e-07, cumulative = -0.000168686
ExecutionTime = 1.08 s  ClockTime = 2 s

Time = 3.94

Courant Number mean: 0.186331 max: 0.651266
diagonal:  Solving for rho, Initial residual = 0, Final residual = 0, No Iterations 0
PIMPLE: Iteration 1
smoothSolver:  Solving for Ux, Initial residual = 0.00265558, Final residual = 6.9512e-07, No Iterations 1
smoothSolver:  Solving for Uy, Initial residual = 0.00139711, Final residual = 3.51374e-07, No Iterations 1
smoothSolver:  Solving for e, Initial residual = 0.012707, Final residual = 6.06029e-07, No Iterations 3
smoothSolver:  Solving for p, Initial residual = 0.0148989, Final residual = 2.96997e-07, No Iterations 3
diagonal:  Solving for rho, Initial residual = 0, Final residual = 0, No Iterations 0
time step continuity errors : sum local = 2.58375e-07, global = -2.05784e-07, cumulative = -0.000168891
PIMPLE: Iteration 2
smoothSolver:  Solving for Ux, Initial residual = 0.00165722, Final residual = 5.76825e-09, No Iterations 1
smoothSolver:  Solving for Uy, Initial residual = 0.000981753, Final residual = 4.00319e-09, No Iterations 1
smoothSolver:  Solving for e, Initial residual = 0.014152, Final residual = 4.94388e-06, No Iterations 2
smoothSolver:  Solving for p, Initial residual = 0.0123655, Final residual = 4.44255e-07, No Iterations 3
diagonal:  Solving for rho, Initial residual = 0, Final residual = 0, No Iterations 0
time step continuity errors : sum local = 3.85159e-07, global = -1.72693e-07, cumulative = -0.000169064
ExecutionTime = 1.08 s  ClockTime = 2 s

Time = 3.95

Courant Number mean: 0.186296 max: 0.651283
diagonal:  Solving for rho, Initial residual = 0, Final residual = 0, No Iterations 0
PIMPLE: Iteration 1
smoothSolver:  Solving for Ux, Initial residual = 0.00268186, Final residual = 6.90447e-07, No Iterations 1
smoothSolver:  Solving for Uy, Initial residual = 0.00143086, Final residual = 3.49331e-07, No Iterations 1
smoothSolver:  Solving for e, Initial residual = 0.0126387, Final residual = 6.97508e-07, No Iterations 3
smoothSolver:  Solving for p, Initial residual = 0.0150723, Final residual = 4.12732e-07, No Iterations 3
diagonal:  Solving for rho, Initial residual = 0, Final residual = 0, No Iterations 0
time step continuity errors : sum local = 3.59195e-07, global = -2.51396e-07, cumulative = -0.000169316
PIMPLE: Iteration 2
smoothSolver:  Solving for Ux, Initial residual = 0.00169419, Final residual = 4.77823e-09, No Iterations 1
smoothSolver:  Solving for Uy, Initial residual = 0.00103905, Final residual = 4.66397e-09, No Iterations 1
smoothSolver:  Solving for e, Initial residual = 0.0149123, Final residual = 4.72915e-06, No Iterations 2
smoothSolver:  Solving for p, Initial residual = 0.0134085, Final residual = 5.08558e-07, No Iterations 3
diagonal:  Solving for rho, Initial residual = 0, Final residual = 0, No Iterations 0
time step continuity errors : sum local = 4.41117e-07, global = -2.08822e-07, cumulative = -0.000169524
ExecutionTime = 1.09 s  ClockTime = 2 s

Time = 3.96

Courant Number mean: 0.186567 max: 0.651296
diagonal:  Solving for rho, Initial residual = 0, Final residual = 0, No Iterations 0
PIMPLE: Iteration 1
smoothSolver:  Solving for Ux, Initial residual = 0.00269145, Final residual = 6.8741e-07, No Iterations 1
smoothSolver:  Solving for Uy, Initial residual = 0.00148158, Final residual = 3.44622e-07, No Iterations 1
smoothSolver:  Solving for e, Initial residual = 0.0131224, Final residual = 7.5539e-07, No Iterations 3
smoothSolver:  Solving for p, Initial residual = 0.0154222, Final residual = 2.30995e-07, No Iterations 3
diagonal:  Solving for rho, Initial residual = 0, Final residual = 0, No Iterations 0
time step continuity errors : sum local = 2.01088e-07, global = -1.43068e-07, cumulative = -0.000169667
PIMPLE: Iteration 2
smoothSolver:  Solving for Ux, Initial residual = 0.00189979, Final residual = 5.40294e-09, No Iterations 1
smoothSolver:  Solving for Uy, Initial residual = 0.00109335, Final residual = 4.22952e-09, No Iterations 1
smoothSolver:  Solving for e, Initial residual = 0.0141738, Final residual = 4.36395e-06, No Iterations 2
smoothSolver:  Solving for p, Initial residual = 0.0113145, Final residual = 4.6485e-07, No Iterations 3
diagonal:  Solving for rho, Initial residual = 0, Final residual = 0, No Iterations 0
time step continuity errors : sum local = 4.02692e-07, global = -1.4158e-07, cumulative = -0.000169809
ExecutionTime = 1.09 s  ClockTime = 2 s

Time = 3.97

Courant Number mean: 0.186031 max: 0.651311
diagonal:  Solving for rho, Initial residual = 0, Final residual = 0, No Iterations 0
PIMPLE: Iteration 1
smoothSolver:  Solving for Ux, Initial residual = 0.00251373, Final residual = 6.8401e-07, No Iterations 1
smoothSolver:  Solving for Uy, Initial residual = 0.00131487, Final residual = 3.44577e-07, No Iterations 1
smoothSolver:  Solving for e, Initial residual = 0.0122343, Final residual = 6.09179e-07, No Iterations 3
smoothSolver:  Solving for p, Initial residual = 0.0147999, Final residual = 2.92929e-07, No Iterations 3
diagonal:  Solving for rho, Initial residual = 0, Final residual = 0, No Iterations 0
time step continuity errors : sum local = 2.54516e-07, global = -1.61492e-07, cumulative = -0.000169971
PIMPLE: Iteration 2
smoothSolver:  Solving for Ux, Initial residual = 0.00158926, Final residual = 4.11221e-09, No Iterations 1
smoothSolver:  Solving for Uy, Initial residual = 0.000952244, Final residual = 3.90495e-09, No Iterations 1
smoothSolver:  Solving for e, Initial residual = 0.0138187, Final residual = 4.98017e-06, No Iterations 2
smoothSolver:  Solving for p, Initial residual = 0.0119766, Final residual = 4.53857e-07, No Iterations 3
diagonal:  Solving for rho, Initial residual = 0, Final residual = 0, No Iterations 0
time step continuity errors : sum local = 3.9309e-07, global = -1.75895e-07, cumulative = -0.000170146
ExecutionTime = 1.09 s  ClockTime = 2 s

Time = 3.98

Courant Number mean: 0.185984 max: 0.651324
diagonal:  Solving for rho, Initial residual = 0, Final residual = 0, No Iterations 0
PIMPLE: Iteration 1
smoothSolver:  Solving for Ux, Initial residual = 0.00260241, Final residual = 6.82083e-07, No Iterations 1
smoothSolver:  Solving for Uy, Initial residual = 0.00131285, Final residual = 3.39039e-07, No Iterations 1
smoothSolver:  Solving for e, Initial residual = 0.0121623, Final residual = 5.60037e-07, No Iterations 3
smoothSolver:  Solving for p, Initial residual = 0.0144083, Final residual = 3.20383e-07, No Iterations 3
diagonal:  Solving for rho, Initial residual = 0, Final residual = 0, No Iterations 0
time step continuity errors : sum local = 2.78008e-07, global = -1.74144e-07, cumulative = -0.000170321
PIMPLE: Iteration 2
smoothSolver:  Solving for Ux, Initial residual = 0.00155743, Final residual = 4.637e-09, No Iterations 1
smoothSolver:  Solving for Uy, Initial residual = 0.000927654, Final residual = 3.74181e-09, No Iterations 1
smoothSolver:  Solving for e, Initial residual = 0.0132491, Final residual = 5.1281e-06, No Iterations 2
smoothSolver:  Solving for p, Initial residual = 0.011645, Final residual = 4.46994e-07, No Iterations 3
diagonal:  Solving for rho, Initial residual = 0, Final residual = 0, No Iterations 0
time step continuity errors : sum local = 3.86806e-07, global = -1.58812e-07, cumulative = -0.000170479
ExecutionTime = 1.09 s  ClockTime = 2 s

Time = 3.99

Courant Number mean: 0.185818 max: 0.651336
diagonal:  Solving for rho, Initial residual = 0, Final residual = 0, No Iterations 0
PIMPLE: Iteration 1
smoothSolver:  Solving for Ux, Initial residual = 0.0026546, Final residual = 6.75986e-07, No Iterations 1
smoothSolver:  Solving for Uy, Initial residual = 0.00134609, Final residual = 3.34931e-07, No Iterations 1
smoothSolver:  Solving for e, Initial residual = 0.0121208, Final residual = 6.17467e-07, No Iterations 3
smoothSolver:  Solving for p, Initial residual = 0.0144424, Final residual = 3.4039e-07, No Iterations 3
diagonal:  Solving for rho, Initial residual = 0, Final residual = 0, No Iterations 0
time step continuity errors : sum local = 2.95224e-07, global = -2.22509e-07, cumulative = -0.000170702
PIMPLE: Iteration 2
smoothSolver:  Solving for Ux, Initial residual = 0.00154324, Final residual = 5.29331e-09, No Iterations 1
smoothSolver:  Solving for Uy, Initial residual = 0.00091493, Final residual = 4.35514e-09, No Iterations 1
smoothSolver:  Solving for e, Initial residual = 0.0140579, Final residual = 5.25799e-06, No Iterations 2
smoothSolver:  Solving for p, Initial residual = 0.0128157, Final residual = 4.51453e-07, No Iterations 3
diagonal:  Solving for rho, Initial residual = 0, Final residual = 0, No Iterations 0
time step continuity errors : sum local = 3.90436e-07, global = -1.96608e-07, cumulative = -0.000170898
ExecutionTime = 1.1 s  ClockTime = 2 s

Time = 4

Courant Number mean: 0.18607 max: 0.651346
diagonal:  Solving for rho, Initial residual = 0, Final residual = 0, No Iterations 0
PIMPLE: Iteration 1
smoothSolver:  Solving for Ux, Initial residual = 0.00269752, Final residual = 6.72478e-07, No Iterations 1
smoothSolver:  Solving for Uy, Initial residual = 0.00143608, Final residual = 3.31939e-07, No Iterations 1
smoothSolver:  Solving for e, Initial residual = 0.0127845, Final residual = 6.34789e-07, No Iterations 3
smoothSolver:  Solving for p, Initial residual = 0.0148369, Final residual = 3.55577e-07, No Iterations 3
diagonal:  Solving for rho, Initial residual = 0, Final residual = 0, No Iterations 0
time step continuity errors : sum local = 3.08564e-07, global = -2.12569e-07, cumulative = -0.000171111
PIMPLE: Iteration 2
smoothSolver:  Solving for Ux, Initial residual = 0.00168235, Final residual = 5.96872e-09, No Iterations 1
smoothSolver:  Solving for Uy, Initial residual = 0.00101871, Final residual = 4.07127e-09, No Iterations 1
smoothSolver:  Solving for e, Initial residual = 0.014181, Final residual = 4.28758e-06, No Iterations 2
smoothSolver:  Solving for p, Initial residual = 0.0127, Final residual = 4.67396e-07, No Iterations 3
diagonal:  Solving for rho, Initial residual = 0, Final residual = 0, No Iterations 0
time step continuity errors : sum local = 4.04262e-07, global = -2.23238e-07, cumulative = -0.000171334
ExecutionTime = 1.1 s  ClockTime = 2 s

End

