/work/05893/rskim47/stampede2/coe347/openFOAM_3/mach-3-tunnel-with-step/sonicFoam
Tue Apr 30 18:02:05 CDT 2019
/*---------------------------------------------------------------------------*\
  =========                 |
  \\      /  F ield         | OpenFOAM: The Open Source CFD Toolbox
   \\    /   O peration     | Website:  https://openfoam.org
    \\  /    A nd           | Version:  6.0
     \\/     M anipulation  |
\*---------------------------------------------------------------------------*/
Build  : 6.0
Exec   : blockMesh
Date   : Apr 30 2019
Time   : 18:02:06
Host   : "c401-004.stampede2.tacc.utexas.edu"
PID    : 212235
I/O    : uncollated
Case   : /work/05893/rskim47/stampede2/coe347/openFOAM_3/mach-3-tunnel-with-step/sonicFoam
nProcs : 1
sigFpe : Enabling floating point exception trapping (FOAM_SIGFPE).
fileModificationChecking : Monitoring run-time modified files using timeStampMaster (fileModificationSkew 10)
allowSystemOperations : Allowing user-supplied system call operations

// * * * * * * * * * * * * * * * * * * * * * * * * * * * * * * * * * * * * * //
Create time

Deleting polyMesh directory
    "/work/05893/rskim47/stampede2/coe347/openFOAM_3/mach-3-tunnel-with-step/sonicFoam/constant/polyMesh"
Creating block mesh from
    "/work/05893/rskim47/stampede2/coe347/openFOAM_3/mach-3-tunnel-with-step/sonicFoam/system/blockMeshDict"
No non-linear block edges defined
No non-planar block faces defined
Creating topology blocks
Creating topology patches

Creating block mesh topology
--> FOAM Warning : 
    From function Foam::polyMesh::polyMesh(const Foam::IOobject &, const Foam::Xfer<Foam::Field<Foam::Vector<double>>> &, const Foam::List<Foam::cellShape> &, const Foam::List<Foam::List<Foam::face>> &, const Foam::List<Foam::word> &, const Foam::PtrList<Foam::dictionary> &, const Foam::word &, const Foam::word &, bool)
    in file meshes/polyMesh/polyMeshFromShapeMesh.C at line 871
    Found 6 undefined faces in mesh; adding to default patch.

Check topology

	Basic statistics
		Number of internal faces : 2
		Number of boundary faces : 14
		Number of defined boundary faces : 14
		Number of undefined boundary faces : 0
	Checking patch -> block consistency

Creating block offsets
Creating merge list .

Creating polyMesh from blockMesh
Creating points with scale 1
    Block 0 cell size :
        i : 0.015 .. 0.015
        j : 0.005 .. 0.005
        k : 0.0025 .. 0.0025

    Block 1 cell size :
        i : 0.015 .. 0.015
        j : 0.02 .. 0.02
        k : 0.0025 .. 0.0025

    Block 2 cell size :
        i : 0.06 .. 0.06
        j : 0.02 .. 0.02
        k : 0.0025 .. 0.0025

Creating cells
Creating patches

Writing polyMesh
----------------
Mesh Information
----------------
  boundingBox: (0 0 -0.05) (3 1 0.05)
  nPoints: 203401
  nCells: 192000
  nFaces: 587200
  nInternalFaces: 564800
----------------
Patches
----------------
  patch 0 (start: 564800 size: 3200) name: inlet
  patch 1 (start: 568000 size: 1600) name: outlet
  patch 2 (start: 569600 size: 3200) name: top
  patch 3 (start: 572800 size: 1600) name: bottom
  patch 4 (start: 574400 size: 3200) name: step
  patch 5 (start: 577600 size: 9600) name: defaultFaces

End

/*---------------------------------------------------------------------------*\
  =========                 |
  \\      /  F ield         | OpenFOAM: The Open Source CFD Toolbox
   \\    /   O peration     | Website:  https://openfoam.org
    \\  /    A nd           | Version:  6.0
     \\/     M anipulation  |
\*---------------------------------------------------------------------------*/
Build  : 6.0
Exec   : checkMesh
Date   : Apr 30 2019
Time   : 18:02:17
Host   : "c401-004.stampede2.tacc.utexas.edu"
PID    : 212248
I/O    : uncollated
Case   : /work/05893/rskim47/stampede2/coe347/openFOAM_3/mach-3-tunnel-with-step/sonicFoam
nProcs : 1
sigFpe : Enabling floating point exception trapping (FOAM_SIGFPE).
fileModificationChecking : Monitoring run-time modified files using timeStampMaster (fileModificationSkew 10)
allowSystemOperations : Allowing user-supplied system call operations

// * * * * * * * * * * * * * * * * * * * * * * * * * * * * * * * * * * * * * //
Create time

Create polyMesh for time = 0

Time = 0

Mesh stats
    points:           203401
    faces:            587200
    internal faces:   564800
    cells:            192000
    faces per cell:   6
    boundary patches: 6
    point zones:      0
    face zones:       0
    cell zones:       0

Overall number of cells of each type:
    hexahedra:     192000
    prisms:        0
    wedges:        0
    pyramids:      0
    tet wedges:    0
    tetrahedra:    0
    polyhedra:     0

Checking topology...
    Boundary definition OK.
 ***Total number of faces on empty patches is not divisible by the number of cells in the mesh. Hence this mesh is not 1D or 2D.
    Cell to face addressing OK.
    Point usage OK.
    Upper triangular ordering OK.
    Face vertices OK.
    Number of regions: 1 (OK).

Checking patch topology for multiply connected surfaces...
    Patch               Faces    Points   Surface topology                  
    inlet               3200     3321     ok (non-closed singly connected)  
    outlet              1600     1681     ok (non-closed singly connected)  
    top                 3200     3321     ok (non-closed singly connected)  
    bottom              1600     1681     ok (non-closed singly connected)  
    step                3200     3321     ok (non-closed singly connected)  
    defaultFaces        9600     9922     ok (non-closed singly connected)  

Checking geometry...
    Overall domain bounding box (0 0 -0.05) (3 1 0.05)
    Mesh has 2 geometric (non-empty/wedge) directions (1 1 0)
    Mesh has 2 solution (non-empty) directions (1 1 0)
    All edges aligned with or perpendicular to non-empty directions.
    Boundary openness (5.51152e-20 -5.63356e-15 -8.42113e-17) OK.
    Max cell openness = 1.807e-16 OK.
    Max aspect ratio = 3 OK.
    Minimum face area = 1.25e-05. Maximum face area = 0.0012.  Face area magnitudes OK.
    Min volume = 1.875e-07. Max volume = 3e-06.  Total volume = 0.252.  Cell volumes OK.
    Mesh non-orthogonality Max: 0 average: 0
    Non-orthogonality check OK.
    Face pyramids OK.
    Max skewness = 5.18103e-14 OK.
    Coupled point location match (average 0) OK.

Mesh OK.

End

/*---------------------------------------------------------------------------*\
  =========                 |
  \\      /  F ield         | OpenFOAM: The Open Source CFD Toolbox
   \\    /   O peration     | Website:  https://openfoam.org
    \\  /    A nd           | Version:  6.0
     \\/     M anipulation  |
\*---------------------------------------------------------------------------*/
Build  : 6.0
Exec   : sonicFoam
Date   : Apr 30 2019
Time   : 18:02:41
Host   : "c401-004.stampede2.tacc.utexas.edu"
PID    : 212267
I/O    : uncollated
Case   : /work/05893/rskim47/stampede2/coe347/openFOAM_3/mach-3-tunnel-with-step/sonicFoam
nProcs : 1
sigFpe : Enabling floating point exception trapping (FOAM_SIGFPE).
fileModificationChecking : Monitoring run-time modified files using timeStampMaster (fileModificationSkew 10)
allowSystemOperations : Allowing user-supplied system call operations

// * * * * * * * * * * * * * * * * * * * * * * * * * * * * * * * * * * * * * //
Create time

Create mesh for time = 0


PIMPLE: No convergence criteria found


PIMPLE: No corrector convergence criteria found
        Calclations will do 2 corrections

Reading thermophysical properties

Selecting thermodynamics package 
{
    type            hePsiThermo;
    mixture         pureMixture;
    transport       const;
    thermo          hConst;
    equationOfState perfectGas;
    specie          specie;
    energy          sensibleInternalEnergy;
}

Reading field U

Reading/calculating face flux field phi

Creating turbulence model

Selecting turbulence model type laminar
Selecting laminar stress model Stokes
Creating field kinetic energy K

No MRF models present

No finite volume options present

Starting time loop

Time = 0.001

Courant Number mean: 0.0855952 max: 0.2
diagonal:  Solving for rho, Initial residual = 0, Final residual = 0, No Iterations 0
PIMPLE: Iteration 1
smoothSolver:  Solving for Ux, Initial residual = 0.786671, Final residual = 0.379688, No Iterations 1000
smoothSolver:  Solving for Uy, Initial residual = 0.999754, Final residual = 5.44231e-17, No Iterations 1
smoothSolver:  Solving for e, Initial residual = 1, Final residual = 8.06599e-07, No Iterations 3
smoothSolver:  Solving for p, Initial residual = 1, Final residual = 6.33804e-08, No Iterations 4
diagonal:  Solving for rho, Initial residual = 0, Final residual = 0, No Iterations 0
time step continuity errors : sum local = 1.98173e-11, global = 2.41977e-12, cumulative = 2.41977e-12
PIMPLE: Iteration 2
smoothSolver:  Solving for Ux, Initial residual = 0.006419, Final residual = 1.76442e-09, No Iterations 1
smoothSolver:  Solving for Uy, Initial residual = 0.023359, Final residual = 1.17166e-08, No Iterations 1
smoothSolver:  Solving for e, Initial residual = 0.436476, Final residual = 3.32144e-06, No Iterations 2
smoothSolver:  Solving for p, Initial residual = 0.169058, Final residual = 2.6227e-07, No Iterations 3
diagonal:  Solving for rho, Initial residual = 0, Final residual = 0, No Iterations 0
time step continuity errors : sum local = 1.67127e-09, global = -1.03845e-09, cumulative = -1.03603e-09
ExecutionTime = 35 s  ClockTime = 35 s

Time = 0.002

Courant Number mean: 0.0856629 max: 0.201078
diagonal:  Solving for rho, Initial residual = 0, Final residual = 0, No Iterations 0
PIMPLE: Iteration 1
smoothSolver:  Solving for Ux, Initial residual = 0.0601001, Final residual = 1.53502e-07, No Iterations 1
smoothSolver:  Solving for Uy, Initial residual = 0.125606, Final residual = 5.11916e-07, No Iterations 1
smoothSolver:  Solving for e, Initial residual = 0.0670654, Final residual = 5.91549e-07, No Iterations 2
smoothSolver:  Solving for p, Initial residual = 0.441744, Final residual = 3.62539e-07, No Iterations 3
diagonal:  Solving for rho, Initial residual = 0, Final residual = 0, No Iterations 0
time step continuity errors : sum local = 3.74023e-09, global = 1.18462e-09, cumulative = 1.48585e-10
PIMPLE: Iteration 2
smoothSolver:  Solving for Ux, Initial residual = 0.00255744, Final residual = 3.47039e-07, No Iterations 1
smoothSolver:  Solving for Uy, Initial residual = 0.007333, Final residual = 4.53396e-07, No Iterations 1
smoothSolver:  Solving for e, Initial residual = 0.336065, Final residual = 2.94167e-06, No Iterations 2
smoothSolver:  Solving for p, Initial residual = 0.072908, Final residual = 5.86021e-08, No Iterations 3
diagonal:  Solving for rho, Initial residual = 0, Final residual = 0, No Iterations 0
time step continuity errors : sum local = 1.21198e-09, global = 3.6927e-10, cumulative = 5.17855e-10
ExecutionTime = 37.75 s  ClockTime = 38 s

Time = 0.003

Courant Number mean: 0.0874278 max: 0.217086
diagonal:  Solving for rho, Initial residual = 0, Final residual = 0, No Iterations 0
PIMPLE: Iteration 1
smoothSolver:  Solving for Ux, Initial residual = 0.0443089, Final residual = 4.89443e-06, No Iterations 1
smoothSolver:  Solving for Uy, Initial residual = 0.0897034, Final residual = 7.15073e-06, No Iterations 1
smoothSolver:  Solving for e, Initial residual = 0.19157, Final residual = 1.59533e-06, No Iterations 2
smoothSolver:  Solving for p, Initial residual = 0.25878, Final residual = 2.13298e-07, No Iterations 3
diagonal:  Solving for rho, Initial residual = 0, Final residual = 0, No Iterations 0
time step continuity errors : sum local = 6.39501e-09, global = 1.68797e-09, cumulative = 2.20582e-09
PIMPLE: Iteration 2
smoothSolver:  Solving for Ux, Initial residual = 0.00150857, Final residual = 4.54185e-07, No Iterations 1
smoothSolver:  Solving for Uy, Initial residual = 0.00395879, Final residual = 3.76791e-07, No Iterations 1
smoothSolver:  Solving for e, Initial residual = 0.0677056, Final residual = 5.1981e-07, No Iterations 2
smoothSolver:  Solving for p, Initial residual = 0.0166239, Final residual = 2.005e-08, No Iterations 3
diagonal:  Solving for rho, Initial residual = 0, Final residual = 0, No Iterations 0
time step continuity errors : sum local = 8.53408e-10, global = 1.49703e-10, cumulative = 2.35553e-09
ExecutionTime = 40.48 s  ClockTime = 41 s

Time = 0.004

Courant Number mean: 0.0885742 max: 0.228042
diagonal:  Solving for rho, Initial residual = 0, Final residual = 0, No Iterations 0
PIMPLE: Iteration 1
smoothSolver:  Solving for Ux, Initial residual = 0.035835, Final residual = 7.19691e-06, No Iterations 1
smoothSolver:  Solving for Uy, Initial residual = 0.0711314, Final residual = 8.30164e-06, No Iterations 1
smoothSolver:  Solving for e, Initial residual = 0.157526, Final residual = 1.41949e-06, No Iterations 2
smoothSolver:  Solving for p, Initial residual = 0.161331, Final residual = 1.49441e-07, No Iterations 3
diagonal:  Solving for rho, Initial residual = 0, Final residual = 0, No Iterations 0
time step continuity errors : sum local = 7.77934e-09, global = 2.38805e-09, cumulative = 4.74358e-09
PIMPLE: Iteration 2
smoothSolver:  Solving for Ux, Initial residual = 0.000960669, Final residual = 3.36249e-07, No Iterations 1
smoothSolver:  Solving for Uy, Initial residual = 0.00251348, Final residual = 2.97814e-07, No Iterations 1
smoothSolver:  Solving for e, Initial residual = 0.0344768, Final residual = 2.37304e-07, No Iterations 2
smoothSolver:  Solving for p, Initial residual = 0.00828944, Final residual = 7.9931e-07, No Iterations 2
diagonal:  Solving for rho, Initial residual = 0, Final residual = 0, No Iterations 0
time step continuity errors : sum local = 5.19613e-08, global = 1.29745e-08, cumulative = 1.77181e-08
ExecutionTime = 43.19 s  ClockTime = 44 s

Time = 0.005

Courant Number mean: 0.0891387 max: 0.233645
diagonal:  Solving for rho, Initial residual = 0, Final residual = 0, No Iterations 0
PIMPLE: Iteration 1
smoothSolver:  Solving for Ux, Initial residual = 0.0301986, Final residual = 7.34805e-06, No Iterations 1
smoothSolver:  Solving for Uy, Initial residual = 0.0593936, Final residual = 7.72417e-06, No Iterations 1
smoothSolver:  Solving for e, Initial residual = 0.119315, Final residual = 1.10781e-06, No Iterations 2
smoothSolver:  Solving for p, Initial residual = 0.104825, Final residual = 1.29134e-07, No Iterations 3
diagonal:  Solving for rho, Initial residual = 0, Final residual = 0, No Iterations 0
time step continuity errors : sum local = 9.44922e-09, global = 3.36473e-09, cumulative = 2.10828e-08
PIMPLE: Iteration 2
smoothSolver:  Solving for Ux, Initial residual = 0.000694317, Final residual = 2.13225e-07, No Iterations 1
smoothSolver:  Solving for Uy, Initial residual = 0.00173251, Final residual = 2.34467e-07, No Iterations 1
smoothSolver:  Solving for e, Initial residual = 0.0333125, Final residual = 2.72836e-07, No Iterations 2
smoothSolver:  Solving for p, Initial residual = 0.00682853, Final residual = 5.8635e-07, No Iterations 2
diagonal:  Solving for rho, Initial residual = 0, Final residual = 0, No Iterations 0
time step continuity errors : sum local = 4.96876e-08, global = 1.29627e-08, cumulative = 3.40455e-08
ExecutionTime = 45.87 s  ClockTime = 46 s

Time = 0.006

Courant Number mean: 0.0893609 max: 0.235936
diagonal:  Solving for rho, Initial residual = 0, Final residual = 0, No Iterations 0
PIMPLE: Iteration 1
smoothSolver:  Solving for Ux, Initial residual = 0.0261468, Final residual = 6.44217e-06, No Iterations 1
smoothSolver:  Solving for Uy, Initial residual = 0.051249, Final residual = 6.80616e-06, No Iterations 1
smoothSolver:  Solving for e, Initial residual = 0.0880309, Final residual = 8.53754e-07, No Iterations 2
smoothSolver:  Solving for p, Initial residual = 0.070088, Final residual = 1.20227e-07, No Iterations 3
diagonal:  Solving for rho, Initial residual = 0, Final residual = 0, No Iterations 0
time step continuity errors : sum local = 1.10143e-08, global = 3.90392e-09, cumulative = 3.79494e-08
PIMPLE: Iteration 2
smoothSolver:  Solving for Ux, Initial residual = 0.000562806, Final residual = 1.45792e-07, No Iterations 1
smoothSolver:  Solving for Uy, Initial residual = 0.00126528, Final residual = 1.83644e-07, No Iterations 1
smoothSolver:  Solving for e, Initial residual = 0.0260835, Final residual = 2.37454e-07, No Iterations 2
smoothSolver:  Solving for p, Initial residual = 0.0050228, Final residual = 4.57789e-07, No Iterations 2
diagonal:  Solving for rho, Initial residual = 0, Final residual = 0, No Iterations 0
time step continuity errors : sum local = 4.64704e-08, global = 1.20875e-08, cumulative = 5.0037e-08
ExecutionTime = 48.57 s  ClockTime = 49 s

Time = 0.007

Courant Number mean: 0.0893912 max: 0.236552
diagonal:  Solving for rho, Initial residual = 0, Final residual = 0, No Iterations 0
PIMPLE: Iteration 1
smoothSolver:  Solving for Ux, Initial residual = 0.0231277, Final residual = 5.2722e-06, No Iterations 1
smoothSolver:  Solving for Uy, Initial residual = 0.0452687, Final residual = 5.9269e-06, No Iterations 1
smoothSolver:  Solving for e, Initial residual = 0.0721478, Final residual = 6.58655e-07, No Iterations 2
smoothSolver:  Solving for p, Initial residual = 0.0564115, Final residual = 1.1313e-07, No Iterations 3
diagonal:  Solving for rho, Initial residual = 0, Final residual = 0, No Iterations 0
time step continuity errors : sum local = 1.21684e-08, global = 4.33454e-09, cumulative = 5.43715e-08
PIMPLE: Iteration 2
smoothSolver:  Solving for Ux, Initial residual = 0.00046649, Final residual = 1.05092e-07, No Iterations 1
smoothSolver:  Solving for Uy, Initial residual = 0.00101274, Final residual = 1.42427e-07, No Iterations 1
smoothSolver:  Solving for e, Initial residual = 0.0232179, Final residual = 1.79118e-07, No Iterations 2
smoothSolver:  Solving for p, Initial residual = 0.00445007, Final residual = 3.63475e-07, No Iterations 2
diagonal:  Solving for rho, Initial residual = 0, Final residual = 0, No Iterations 0
time step continuity errors : sum local = 4.23672e-08, global = 1.81131e-08, cumulative = 7.24846e-08
ExecutionTime = 51.2 s  ClockTime = 52 s

Time = 0.008

Courant Number mean: 0.0893385 max: 0.236505
diagonal:  Solving for rho, Initial residual = 0, Final residual = 0, No Iterations 0
PIMPLE: Iteration 1
smoothSolver:  Solving for Ux, Initial residual = 0.0208407, Final residual = 4.23995e-06, No Iterations 1
smoothSolver:  Solving for Uy, Initial residual = 0.0406869, Final residual = 5.17309e-06, No Iterations 1
smoothSolver:  Solving for e, Initial residual = 0.0666091, Final residual = 5.28493e-07, No Iterations 2
smoothSolver:  Solving for p, Initial residual = 0.049131, Final residual = 9.51092e-08, No Iterations 3
diagonal:  Solving for rho, Initial residual = 0, Final residual = 0, No Iterations 0
time step continuity errors : sum local = 1.15538e-08, global = 5.19395e-09, cumulative = 7.76785e-08
PIMPLE: Iteration 2
smoothSolver:  Solving for Ux, Initial residual = 0.000384777, Final residual = 7.50504e-08, No Iterations 1
smoothSolver:  Solving for Uy, Initial residual = 0.000884189, Final residual = 1.11613e-07, No Iterations 1
smoothSolver:  Solving for e, Initial residual = 0.0190517, Final residual = 1.41936e-07, No Iterations 2
smoothSolver:  Solving for p, Initial residual = 0.00339771, Final residual = 3.40218e-07, No Iterations 2
diagonal:  Solving for rho, Initial residual = 0, Final residual = 0, No Iterations 0
time step continuity errors : sum local = 4.41051e-08, global = 1.85864e-08, cumulative = 9.62649e-08
ExecutionTime = 53.85 s  ClockTime = 54 s

Time = 0.009

Courant Number mean: 0.089265 max: 0.236303
diagonal:  Solving for rho, Initial residual = 0, Final residual = 0, No Iterations 0
PIMPLE: Iteration 1
smoothSolver:  Solving for Ux, Initial residual = 0.0190751, Final residual = 3.41785e-06, No Iterations 1
smoothSolver:  Solving for Uy, Initial residual = 0.0370803, Final residual = 4.57297e-06, No Iterations 1
smoothSolver:  Solving for e, Initial residual = 0.0597997, Final residual = 4.58194e-07, No Iterations 2
smoothSolver:  Solving for p, Initial residual = 0.0421101, Final residual = 9.1675e-08, No Iterations 3
diagonal:  Solving for rho, Initial residual = 0, Final residual = 0, No Iterations 0
time step continuity errors : sum local = 1.22308e-08, global = 6.47136e-09, cumulative = 1.02736e-07
PIMPLE: Iteration 2
smoothSolver:  Solving for Ux, Initial residual = 0.000316791, Final residual = 5.35016e-08, No Iterations 1
smoothSolver:  Solving for Uy, Initial residual = 0.000786534, Final residual = 9.09444e-08, No Iterations 1
smoothSolver:  Solving for e, Initial residual = 0.0143327, Final residual = 1.1006e-07, No Iterations 2
smoothSolver:  Solving for p, Initial residual = 0.00253431, Final residual = 3.18105e-07, No Iterations 2
diagonal:  Solving for rho, Initial residual = 0, Final residual = 0, No Iterations 0
time step continuity errors : sum local = 4.48033e-08, global = 1.85625e-08, cumulative = 1.21299e-07
ExecutionTime = 56.46 s  ClockTime = 57 s

Time = 0.01

Courant Number mean: 0.0891824 max: 0.236141
diagonal:  Solving for rho, Initial residual = 0, Final residual = 0, No Iterations 0
PIMPLE: Iteration 1
smoothSolver:  Solving for Ux, Initial residual = 0.017692, Final residual = 2.79407e-06, No Iterations 1
smoothSolver:  Solving for Uy, Initial residual = 0.0341739, Final residual = 4.09396e-06, No Iterations 1
smoothSolver:  Solving for e, Initial residual = 0.0521796, Final residual = 4.02895e-07, No Iterations 2
smoothSolver:  Solving for p, Initial residual = 0.0356111, Final residual = 9.33014e-08, No Iterations 3
diagonal:  Solving for rho, Initial residual = 0, Final residual = 0, No Iterations 0
time step continuity errors : sum local = 1.33988e-08, global = 7.7035e-09, cumulative = 1.29002e-07
PIMPLE: Iteration 2
smoothSolver:  Solving for Ux, Initial residual = 0.000264702, Final residual = 3.86931e-08, No Iterations 1
smoothSolver:  Solving for Uy, Initial residual = 0.000715988, Final residual = 7.57234e-08, No Iterations 1
smoothSolver:  Solving for e, Initial residual = 0.0100722, Final residual = 8.14622e-08, No Iterations 2
smoothSolver:  Solving for p, Initial residual = 0.00213844, Final residual = 2.8701e-07, No Iterations 2
diagonal:  Solving for rho, Initial residual = 0, Final residual = 0, No Iterations 0
time step continuity errors : sum local = 4.31855e-08, global = 1.89233e-08, cumulative = 1.47926e-07
ExecutionTime = 59.09 s  ClockTime = 59 s

Time = 0.011

Courant Number mean: 0.0890818 max: 0.236045
diagonal:  Solving for rho, Initial residual = 0, Final residual = 0, No Iterations 0
PIMPLE: Iteration 1
smoothSolver:  Solving for Ux, Initial residual = 0.0165489, Final residual = 2.35463e-06, No Iterations 1
smoothSolver:  Solving for Uy, Initial residual = 0.031789, Final residual = 3.70863e-06, No Iterations 1
smoothSolver:  Solving for e, Initial residual = 0.0443138, Final residual = 3.40862e-07, No Iterations 2
smoothSolver:  Solving for p, Initial residual = 0.0302866, Final residual = 9.76271e-08, No Iterations 3
diagonal:  Solving for rho, Initial residual = 0, Final residual = 0, No Iterations 0
time step continuity errors : sum local = 1.49444e-08, global = 9.23411e-09, cumulative = 1.5716e-07
PIMPLE: Iteration 2
smoothSolver:  Solving for Ux, Initial residual = 0.000224914, Final residual = 2.87551e-08, No Iterations 1
smoothSolver:  Solving for Uy, Initial residual = 0.000660953, Final residual = 6.5126e-08, No Iterations 1
smoothSolver:  Solving for e, Initial residual = 0.00886506, Final residual = 6.36756e-08, No Iterations 2
smoothSolver:  Solving for p, Initial residual = 0.00206936, Final residual = 2.69477e-07, No Iterations 2
diagonal:  Solving for rho, Initial residual = 0, Final residual = 0, No Iterations 0
time step continuity errors : sum local = 4.30286e-08, global = 2.01512e-08, cumulative = 1.77311e-07
ExecutionTime = 61.72 s  ClockTime = 62 s

Time = 0.012

Courant Number mean: 0.0890219 max: 0.236005
diagonal:  Solving for rho, Initial residual = 0, Final residual = 0, No Iterations 0
PIMPLE: Iteration 1
smoothSolver:  Solving for Ux, Initial residual = 0.0155903, Final residual = 2.02418e-06, No Iterations 1
smoothSolver:  Solving for Uy, Initial residual = 0.0297999, Final residual = 3.39988e-06, No Iterations 1
smoothSolver:  Solving for e, Initial residual = 0.0389019, Final residual = 3.01222e-07, No Iterations 2
smoothSolver:  Solving for p, Initial residual = 0.0273257, Final residual = 1.0399e-07, No Iterations 3
diagonal:  Solving for rho, Initial residual = 0, Final residual = 0, No Iterations 0
time step continuity errors : sum local = 1.68728e-08, global = 1.10427e-08, cumulative = 1.88354e-07
PIMPLE: Iteration 2
smoothSolver:  Solving for Ux, Initial residual = 0.000193031, Final residual = 2.21961e-08, No Iterations 1
smoothSolver:  Solving for Uy, Initial residual = 0.00061453, Final residual = 5.95468e-08, No Iterations 1
smoothSolver:  Solving for e, Initial residual = 0.00780018, Final residual = 5.5312e-08, No Iterations 2
smoothSolver:  Solving for p, Initial residual = 0.00186897, Final residual = 2.74558e-07, No Iterations 2
diagonal:  Solving for rho, Initial residual = 0, Final residual = 0, No Iterations 0
time step continuity errors : sum local = 4.64443e-08, global = 2.16154e-08, cumulative = 2.09969e-07
ExecutionTime = 64.36 s  ClockTime = 65 s

Time = 0.013

Courant Number mean: 0.0889686 max: 0.236042
diagonal:  Solving for rho, Initial residual = 0, Final residual = 0, No Iterations 0
PIMPLE: Iteration 1
smoothSolver:  Solving for Ux, Initial residual = 0.014786, Final residual = 1.77018e-06, No Iterations 1
smoothSolver:  Solving for Uy, Initial residual = 0.0281159, Final residual = 3.15815e-06, No Iterations 1
smoothSolver:  Solving for e, Initial residual = 0.0351994, Final residual = 2.65503e-07, No Iterations 2
smoothSolver:  Solving for p, Initial residual = 0.0249444, Final residual = 1.10461e-07, No Iterations 3
diagonal:  Solving for rho, Initial residual = 0, Final residual = 0, No Iterations 0
time step continuity errors : sum local = 1.89141e-08, global = 1.30515e-08, cumulative = 2.23021e-07
PIMPLE: Iteration 2
smoothSolver:  Solving for Ux, Initial residual = 0.000167751, Final residual = 1.78203e-08, No Iterations 1
smoothSolver:  Solving for Uy, Initial residual = 0.000575373, Final residual = 5.66039e-08, No Iterations 1
smoothSolver:  Solving for e, Initial residual = 0.00630387, Final residual = 8.77464e-06, No Iterations 1
smoothSolver:  Solving for p, Initial residual = 0.00154221, Final residual = 2.71441e-07, No Iterations 2
diagonal:  Solving for rho, Initial residual = 0, Final residual = 0, No Iterations 0
time step continuity errors : sum local = 4.83242e-08, global = 2.37858e-08, cumulative = 2.46806e-07
ExecutionTime = 66.97 s  ClockTime = 67 s

Time = 0.014

Courant Number mean: 0.0889093 max: 0.236162
diagonal:  Solving for rho, Initial residual = 0, Final residual = 0, No Iterations 0
PIMPLE: Iteration 1
smoothSolver:  Solving for Ux, Initial residual = 0.0140921, Final residual = 1.56957e-06, No Iterations 1
smoothSolver:  Solving for Uy, Initial residual = 0.0266738, Final residual = 2.99861e-06, No Iterations 1
smoothSolver:  Solving for e, Initial residual = 0.0318229, Final residual = 2.41484e-07, No Iterations 2
smoothSolver:  Solving for p, Initial residual = 0.0225317, Final residual = 1.20233e-07, No Iterations 3
diagonal:  Solving for rho, Initial residual = 0, Final residual = 0, No Iterations 0
time step continuity errors : sum local = 2.16061e-08, global = 1.5712e-08, cumulative = 2.62518e-07
PIMPLE: Iteration 2
smoothSolver:  Solving for Ux, Initial residual = 0.000148199, Final residual = 1.49704e-08, No Iterations 1
smoothSolver:  Solving for Uy, Initial residual = 0.000543858, Final residual = 5.42826e-08, No Iterations 1
smoothSolver:  Solving for e, Initial residual = 0.00496147, Final residual = 7.40192e-06, No Iterations 1
smoothSolver:  Solving for p, Initial residual = 0.00118182, Final residual = 2.56446e-07, No Iterations 2
diagonal:  Solving for rho, Initial residual = 0, Final residual = 0, No Iterations 0
time step continuity errors : sum local = 4.79469e-08, global = 2.75187e-08, cumulative = 2.90037e-07
ExecutionTime = 69.56 s  ClockTime = 70 s

Time = 0.015

Courant Number mean: 0.0888368 max: 0.236372
diagonal:  Solving for rho, Initial residual = 0, Final residual = 0, No Iterations 0
PIMPLE: Iteration 1
smoothSolver:  Solving for Ux, Initial residual = 0.0134871, Final residual = 1.40181e-06, No Iterations 1
smoothSolver:  Solving for Uy, Initial residual = 0.0254222, Final residual = 2.84906e-06, No Iterations 1
smoothSolver:  Solving for e, Initial residual = 0.0289393, Final residual = 2.01436e-07, No Iterations 2
smoothSolver:  Solving for p, Initial residual = 0.0202788, Final residual = 1.28772e-07, No Iterations 3
diagonal:  Solving for rho, Initial residual = 0, Final residual = 0, No Iterations 0
time step continuity errors : sum local = 2.43844e-08, global = 1.88656e-08, cumulative = 3.08903e-07
PIMPLE: Iteration 2
smoothSolver:  Solving for Ux, Initial residual = 0.000132216, Final residual = 1.27476e-08, No Iterations 1
smoothSolver:  Solving for Uy, Initial residual = 0.00051682, Final residual = 5.16864e-08, No Iterations 1
smoothSolver:  Solving for e, Initial residual = 0.00435347, Final residual = 5.78304e-06, No Iterations 1
smoothSolver:  Solving for p, Initial residual = 0.00102381, Final residual = 2.45592e-07, No Iterations 2
diagonal:  Solving for rho, Initial residual = 0, Final residual = 0, No Iterations 0
time step continuity errors : sum local = 4.86066e-08, global = 2.99204e-08, cumulative = 3.38823e-07
ExecutionTime = 72.19 s  ClockTime = 73 s

Time = 0.016

Courant Number mean: 0.088746 max: 0.238559
diagonal:  Solving for rho, Initial residual = 0, Final residual = 0, No Iterations 0
PIMPLE: Iteration 1
smoothSolver:  Solving for Ux, Initial residual = 0.012965, Final residual = 1.25971e-06, No Iterations 1
smoothSolver:  Solving for Uy, Initial residual = 0.0243267, Final residual = 2.70644e-06, No Iterations 1
smoothSolver:  Solving for e, Initial residual = 0.0265129, Final residual = 1.76528e-07, No Iterations 2
smoothSolver:  Solving for p, Initial residual = 0.0183715, Final residual = 1.3916e-07, No Iterations 3
diagonal:  Solving for rho, Initial residual = 0, Final residual = 0, No Iterations 0
time step continuity errors : sum local = 2.78126e-08, global = 2.25363e-08, cumulative = 3.61359e-07
PIMPLE: Iteration 2
smoothSolver:  Solving for Ux, Initial residual = 0.000118753, Final residual = 1.09781e-08, No Iterations 1
smoothSolver:  Solving for Uy, Initial residual = 0.000492073, Final residual = 4.96575e-08, No Iterations 1
smoothSolver:  Solving for e, Initial residual = 0.00376898, Final residual = 5.00259e-06, No Iterations 1
smoothSolver:  Solving for p, Initial residual = 0.000896904, Final residual = 2.42175e-07, No Iterations 2
diagonal:  Solving for rho, Initial residual = 0, Final residual = 0, No Iterations 0
time step continuity errors : sum local = 5.04535e-08, global = 3.23952e-08, cumulative = 3.93755e-07
ExecutionTime = 74.8 s  ClockTime = 75 s

Time = 0.017

Courant Number mean: 0.088704 max: 0.242204
diagonal:  Solving for rho, Initial residual = 0, Final residual = 0, No Iterations 0
PIMPLE: Iteration 1
smoothSolver:  Solving for Ux, Initial residual = 0.0124998, Final residual = 1.1417e-06, No Iterations 1
smoothSolver:  Solving for Uy, Initial residual = 0.0233601, Final residual = 2.58592e-06, No Iterations 1
smoothSolver:  Solving for e, Initial residual = 0.0243164, Final residual = 1.58617e-07, No Iterations 2
smoothSolver:  Solving for p, Initial residual = 0.0166627, Final residual = 1.51117e-07, No Iterations 3
diagonal:  Solving for rho, Initial residual = 0, Final residual = 0, No Iterations 0
time step continuity errors : sum local = 3.17174e-08, global = 2.6839e-08, cumulative = 4.20594e-07
PIMPLE: Iteration 2
smoothSolver:  Solving for Ux, Initial residual = 0.000107189, Final residual = 9.6543e-09, No Iterations 1
smoothSolver:  Solving for Uy, Initial residual = 0.000469068, Final residual = 4.78997e-08, No Iterations 1
smoothSolver:  Solving for e, Initial residual = 0.0032609, Final residual = 4.30779e-06, No Iterations 1
smoothSolver:  Solving for p, Initial residual = 0.000798525, Final residual = 2.41049e-07, No Iterations 2
diagonal:  Solving for rho, Initial residual = 0, Final residual = 0, No Iterations 0
time step continuity errors : sum local = 5.26641e-08, global = 3.52017e-08, cumulative = 4.55795e-07
ExecutionTime = 77.39 s  ClockTime = 78 s

Time = 0.018

Courant Number mean: 0.0886626 max: 0.245653
diagonal:  Solving for rho, Initial residual = 0, Final residual = 0, No Iterations 0
PIMPLE: Iteration 1
smoothSolver:  Solving for Ux, Initial residual = 0.0120815, Final residual = 1.05193e-06, No Iterations 1
smoothSolver:  Solving for Uy, Initial residual = 0.0224986, Final residual = 2.48576e-06, No Iterations 1
smoothSolver:  Solving for e, Initial residual = 0.0223565, Final residual = 1.4069e-07, No Iterations 2
smoothSolver:  Solving for p, Initial residual = 0.0150319, Final residual = 1.64242e-07, No Iterations 3
diagonal:  Solving for rho, Initial residual = 0, Final residual = 0, No Iterations 0
time step continuity errors : sum local = 3.61706e-08, global = 3.18389e-08, cumulative = 4.87634e-07
PIMPLE: Iteration 2
smoothSolver:  Solving for Ux, Initial residual = 9.72794e-05, Final residual = 8.80812e-09, No Iterations 1
smoothSolver:  Solving for Uy, Initial residual = 0.000450039, Final residual = 4.64272e-08, No Iterations 1
smoothSolver:  Solving for e, Initial residual = 0.00276859, Final residual = 3.66175e-06, No Iterations 1
smoothSolver:  Solving for p, Initial residual = 0.000691291, Final residual = 2.39379e-07, No Iterations 2
diagonal:  Solving for rho, Initial residual = 0, Final residual = 0, No Iterations 0
time step continuity errors : sum local = 5.47343e-08, global = 3.802e-08, cumulative = 5.25654e-07
ExecutionTime = 80.01 s  ClockTime = 80 s

Time = 0.019

Courant Number mean: 0.0886104 max: 0.248897
diagonal:  Solving for rho, Initial residual = 0, Final residual = 0, No Iterations 0
PIMPLE: Iteration 1
smoothSolver:  Solving for Ux, Initial residual = 0.011699, Final residual = 9.72823e-07, No Iterations 1
smoothSolver:  Solving for Uy, Initial residual = 0.0217254, Final residual = 2.4141e-06, No Iterations 1
smoothSolver:  Solving for e, Initial residual = 0.0208558, Final residual = 1.28684e-07, No Iterations 2
smoothSolver:  Solving for p, Initial residual = 0.0137022, Final residual = 1.79279e-07, No Iterations 3
diagonal:  Solving for rho, Initial residual = 0, Final residual = 0, No Iterations 0
time step continuity errors : sum local = 4.13517e-08, global = 3.75177e-08, cumulative = 5.63172e-07
PIMPLE: Iteration 2
smoothSolver:  Solving for Ux, Initial residual = 8.86961e-05, Final residual = 8.31613e-09, No Iterations 1
smoothSolver:  Solving for Uy, Initial residual = 0.000433267, Final residual = 4.48596e-08, No Iterations 1
smoothSolver:  Solving for e, Initial residual = 0.00245666, Final residual = 3.23168e-06, No Iterations 1
smoothSolver:  Solving for p, Initial residual = 0.000603939, Final residual = 2.36856e-07, No Iterations 2
diagonal:  Solving for rho, Initial residual = 0, Final residual = 0, No Iterations 0
time step continuity errors : sum local = 5.67558e-08, global = 4.10309e-08, cumulative = 6.04203e-07
ExecutionTime = 82.62 s  ClockTime = 83 s

Time = 0.02

Courant Number mean: 0.0885468 max: 0.251944
diagonal:  Solving for rho, Initial residual = 0, Final residual = 0, No Iterations 0
PIMPLE: Iteration 1
smoothSolver:  Solving for Ux, Initial residual = 0.0113451, Final residual = 9.05408e-07, No Iterations 1
smoothSolver:  Solving for Uy, Initial residual = 0.0210258, Final residual = 2.34174e-06, No Iterations 1
smoothSolver:  Solving for e, Initial residual = 0.0197924, Final residual = 1.19736e-07, No Iterations 2
smoothSolver:  Solving for p, Initial residual = 0.0127869, Final residual = 1.98693e-07, No Iterations 3
diagonal:  Solving for rho, Initial residual = 0, Final residual = 0, No Iterations 0
time step continuity errors : sum local = 4.79462e-08, global = 4.40582e-08, cumulative = 6.48261e-07
PIMPLE: Iteration 2
smoothSolver:  Solving for Ux, Initial residual = 8.10643e-05, Final residual = 7.86536e-09, No Iterations 1
smoothSolver:  Solving for Uy, Initial residual = 0.000418183, Final residual = 4.33271e-08, No Iterations 1
smoothSolver:  Solving for e, Initial residual = 0.00226318, Final residual = 2.93961e-06, No Iterations 1
smoothSolver:  Solving for p, Initial residual = 0.000552684, Final residual = 2.34205e-07, No Iterations 2
diagonal:  Solving for rho, Initial residual = 0, Final residual = 0, No Iterations 0
time step continuity errors : sum local = 5.86296e-08, global = 4.40351e-08, cumulative = 6.92296e-07
ExecutionTime = 85.23 s  ClockTime = 86 s

Time = 0.021

Courant Number mean: 0.0884707 max: 0.254796
diagonal:  Solving for rho, Initial residual = 0, Final residual = 0, No Iterations 0
PIMPLE: Iteration 1
smoothSolver:  Solving for Ux, Initial residual = 0.0110179, Final residual = 8.44824e-07, No Iterations 1
smoothSolver:  Solving for Uy, Initial residual = 0.0203892, Final residual = 2.26578e-06, No Iterations 1
smoothSolver:  Solving for e, Initial residual = 0.0187956, Final residual = 1.13677e-07, No Iterations 2
smoothSolver:  Solving for p, Initial residual = 0.0119223, Final residual = 2.20454e-07, No Iterations 3
diagonal:  Solving for rho, Initial residual = 0, Final residual = 0, No Iterations 0
time step continuity errors : sum local = 5.54983e-08, global = 5.14568e-08, cumulative = 7.43753e-07
PIMPLE: Iteration 2
smoothSolver:  Solving for Ux, Initial residual = 7.43591e-05, Final residual = 7.45977e-09, No Iterations 1
smoothSolver:  Solving for Uy, Initial residual = 0.000405059, Final residual = 4.20156e-08, No Iterations 1
smoothSolver:  Solving for e, Initial residual = 0.00206535, Final residual = 2.68216e-06, No Iterations 1
smoothSolver:  Solving for p, Initial residual = 0.00050137, Final residual = 2.33083e-07, No Iterations 2
diagonal:  Solving for rho, Initial residual = 0, Final residual = 0, No Iterations 0
time step continuity errors : sum local = 6.0791e-08, global = 4.68662e-08, cumulative = 7.90619e-07
ExecutionTime = 87.83 s  ClockTime = 88 s

Time = 0.022

Courant Number mean: 0.0884261 max: 0.257466
diagonal:  Solving for rho, Initial residual = 0, Final residual = 0, No Iterations 0
PIMPLE: Iteration 1
smoothSolver:  Solving for Ux, Initial residual = 0.0107168, Final residual = 7.90216e-07, No Iterations 1
smoothSolver:  Solving for Uy, Initial residual = 0.0198069, Final residual = 2.20063e-06, No Iterations 1
smoothSolver:  Solving for e, Initial residual = 0.0178377, Final residual = 1.04895e-07, No Iterations 2
smoothSolver:  Solving for p, Initial residual = 0.0110805, Final residual = 2.42651e-07, No Iterations 3
diagonal:  Solving for rho, Initial residual = 0, Final residual = 0, No Iterations 0
time step continuity errors : sum local = 6.35701e-08, global = 5.93434e-08, cumulative = 8.49962e-07
PIMPLE: Iteration 2
smoothSolver:  Solving for Ux, Initial residual = 6.87707e-05, Final residual = 7.09727e-09, No Iterations 1
smoothSolver:  Solving for Uy, Initial residual = 0.000394228, Final residual = 4.10545e-08, No Iterations 1
smoothSolver:  Solving for e, Initial residual = 0.0018561, Final residual = 2.43864e-06, No Iterations 1
smoothSolver:  Solving for p, Initial residual = 0.000444623, Final residual = 2.32376e-07, No Iterations 2
diagonal:  Solving for rho, Initial residual = 0, Final residual = 0, No Iterations 0
time step continuity errors : sum local = 6.30068e-08, global = 4.96491e-08, cumulative = 8.99612e-07
ExecutionTime = 90.44 s  ClockTime = 91 s

Time = 0.023

Courant Number mean: 0.088391 max: 0.259977
diagonal:  Solving for rho, Initial residual = 0, Final residual = 0, No Iterations 0
PIMPLE: Iteration 1
smoothSolver:  Solving for Ux, Initial residual = 0.0104318, Final residual = 7.43296e-07, No Iterations 1
smoothSolver:  Solving for Uy, Initial residual = 0.0192725, Final residual = 2.14617e-06, No Iterations 1
smoothSolver:  Solving for e, Initial residual = 0.016922, Final residual = 9.97691e-08, No Iterations 2
smoothSolver:  Solving for p, Initial residual = 0.0102591, Final residual = 2.67927e-07, No Iterations 3
diagonal:  Solving for rho, Initial residual = 0, Final residual = 0, No Iterations 0
time step continuity errors : sum local = 7.29037e-08, global = 6.84771e-08, cumulative = 9.68089e-07
PIMPLE: Iteration 2
smoothSolver:  Solving for Ux, Initial residual = 6.36558e-05, Final residual = 6.76549e-09, No Iterations 1
smoothSolver:  Solving for Uy, Initial residual = 0.000385162, Final residual = 4.02859e-08, No Iterations 1
smoothSolver:  Solving for e, Initial residual = 0.00166179, Final residual = 2.25072e-06, No Iterations 1
smoothSolver:  Solving for p, Initial residual = 0.000385807, Final residual = 2.30585e-07, No Iterations 2
diagonal:  Solving for rho, Initial residual = 0, Final residual = 0, No Iterations 0
time step continuity errors : sum local = 6.49154e-08, global = 5.21303e-08, cumulative = 1.02022e-06
ExecutionTime = 93.05 s  ClockTime = 93 s

Time = 0.024

Courant Number mean: 0.0883489 max: 0.262354
diagonal:  Solving for rho, Initial residual = 0, Final residual = 0, No Iterations 0
PIMPLE: Iteration 1
smoothSolver:  Solving for Ux, Initial residual = 0.0101607, Final residual = 7.04431e-07, No Iterations 1
smoothSolver:  Solving for Uy, Initial residual = 0.0187794, Final residual = 2.09073e-06, No Iterations 1
smoothSolver:  Solving for e, Initial residual = 0.0160727, Final residual = 9.39583e-08, No Iterations 2
smoothSolver:  Solving for p, Initial residual = 0.0095721, Final residual = 2.94527e-07, No Iterations 3
diagonal:  Solving for rho, Initial residual = 0, Final residual = 0, No Iterations 0
time step continuity errors : sum local = 8.31419e-08, global = 7.85285e-08, cumulative = 1.09875e-06
PIMPLE: Iteration 2
smoothSolver:  Solving for Ux, Initial residual = 5.89533e-05, Final residual = 6.44172e-09, No Iterations 1
smoothSolver:  Solving for Uy, Initial residual = 0.000377304, Final residual = 3.9566e-08, No Iterations 1
smoothSolver:  Solving for e, Initial residual = 0.00153457, Final residual = 2.08575e-06, No Iterations 1
smoothSolver:  Solving for p, Initial residual = 0.00035184, Final residual = 2.28431e-07, No Iterations 2
diagonal:  Solving for rho, Initial residual = 0, Final residual = 0, No Iterations 0
time step continuity errors : sum local = 6.66805e-08, global = 5.43821e-08, cumulative = 1.15313e-06
ExecutionTime = 95.67 s  ClockTime = 96 s

Time = 0.025

Courant Number mean: 0.0883004 max: 0.264855
diagonal:  Solving for rho, Initial residual = 0, Final residual = 0, No Iterations 0
PIMPLE: Iteration 1
smoothSolver:  Solving for Ux, Initial residual = 0.00990479, Final residual = 6.73034e-07, No Iterations 1
smoothSolver:  Solving for Uy, Initial residual = 0.0183224, Final residual = 2.03451e-06, No Iterations 1
smoothSolver:  Solving for e, Initial residual = 0.0153005, Final residual = 9.06317e-08, No Iterations 2
smoothSolver:  Solving for p, Initial residual = 0.00900324, Final residual = 3.22516e-07, No Iterations 3
diagonal:  Solving for rho, Initial residual = 0, Final residual = 0, No Iterations 0
time step continuity errors : sum local = 9.43493e-08, global = 8.94575e-08, cumulative = 1.24259e-06
PIMPLE: Iteration 2
smoothSolver:  Solving for Ux, Initial residual = 5.54438e-05, Final residual = 6.21351e-09, No Iterations 1
smoothSolver:  Solving for Uy, Initial residual = 0.000370727, Final residual = 3.8815e-08, No Iterations 1
smoothSolver:  Solving for e, Initial residual = 0.00141864, Final residual = 1.97179e-06, No Iterations 1
smoothSolver:  Solving for p, Initial residual = 0.000325126, Final residual = 2.24668e-07, No Iterations 2
diagonal:  Solving for rho, Initial residual = 0, Final residual = 0, No Iterations 0
time step continuity errors : sum local = 6.80559e-08, global = 5.65098e-08, cumulative = 1.2991e-06
ExecutionTime = 98.29 s  ClockTime = 99 s

Time = 0.026

Courant Number mean: 0.0882433 max: 0.267813
diagonal:  Solving for rho, Initial residual = 0, Final residual = 0, No Iterations 0
PIMPLE: Iteration 1
smoothSolver:  Solving for Ux, Initial residual = 0.0096579, Final residual = 6.45241e-07, No Iterations 1
smoothSolver:  Solving for Uy, Initial residual = 0.0178966, Final residual = 1.987e-06, No Iterations 1
smoothSolver:  Solving for e, Initial residual = 0.0145506, Final residual = 8.69053e-08, No Iterations 2
smoothSolver:  Solving for p, Initial residual = 0.00842273, Final residual = 3.50186e-07, No Iterations 3
diagonal:  Solving for rho, Initial residual = 0, Final residual = 0, No Iterations 0
time step continuity errors : sum local = 1.06419e-07, global = 1.01262e-07, cumulative = 1.40036e-06
PIMPLE: Iteration 2
smoothSolver:  Solving for Ux, Initial residual = 5.7395e-05, Final residual = 6.04446e-09, No Iterations 1
smoothSolver:  Solving for Uy, Initial residual = 0.000364963, Final residual = 3.81762e-08, No Iterations 1
smoothSolver:  Solving for e, Initial residual = 0.00129556, Final residual = 1.82953e-06, No Iterations 1
smoothSolver:  Solving for p, Initial residual = 0.000295785, Final residual = 2.20043e-07, No Iterations 2
diagonal:  Solving for rho, Initial residual = 0, Final residual = 0, No Iterations 0
time step continuity errors : sum local = 6.94207e-08, global = 5.80943e-08, cumulative = 1.45845e-06
ExecutionTime = 100.91 s  ClockTime = 101 s

Time = 0.027

Courant Number mean: 0.0881865 max: 0.270648
diagonal:  Solving for rho, Initial residual = 0, Final residual = 0, No Iterations 0
PIMPLE: Iteration 1
smoothSolver:  Solving for Ux, Initial residual = 0.00941883, Final residual = 6.19268e-07, No Iterations 1
smoothSolver:  Solving for Uy, Initial residual = 0.0174972, Final residual = 1.94695e-06, No Iterations 1
smoothSolver:  Solving for e, Initial residual = 0.0138307, Final residual = 8.28788e-08, No Iterations 2
smoothSolver:  Solving for p, Initial residual = 0.00783091, Final residual = 3.77348e-07, No Iterations 3
diagonal:  Solving for rho, Initial residual = 0, Final residual = 0, No Iterations 0
time step continuity errors : sum local = 1.19401e-07, global = 1.13866e-07, cumulative = 1.57232e-06
PIMPLE: Iteration 2
smoothSolver:  Solving for Ux, Initial residual = 6.01393e-05, Final residual = 5.85702e-09, No Iterations 1
smoothSolver:  Solving for Uy, Initial residual = 0.000359125, Final residual = 3.76764e-08, No Iterations 1
smoothSolver:  Solving for e, Initial residual = 0.00117021, Final residual = 1.6951e-06, No Iterations 1
smoothSolver:  Solving for p, Initial residual = 0.000264104, Final residual = 2.14731e-07, No Iterations 2
diagonal:  Solving for rho, Initial residual = 0, Final residual = 0, No Iterations 0
time step continuity errors : sum local = 7.05211e-08, global = 5.92247e-08, cumulative = 1.63154e-06
ExecutionTime = 103.52 s  ClockTime = 104 s

Time = 0.028

Courant Number mean: 0.0881571 max: 0.273386
diagonal:  Solving for rho, Initial residual = 0, Final residual = 0, No Iterations 0
PIMPLE: Iteration 1
smoothSolver:  Solving for Ux, Initial residual = 0.00918604, Final residual = 5.94101e-07, No Iterations 1
smoothSolver:  Solving for Uy, Initial residual = 0.0171196, Final residual = 1.91008e-06, No Iterations 1
smoothSolver:  Solving for e, Initial residual = 0.0131468, Final residual = 7.98577e-08, No Iterations 2
smoothSolver:  Solving for p, Initial residual = 0.0072639, Final residual = 4.04226e-07, No Iterations 3
diagonal:  Solving for rho, Initial residual = 0, Final residual = 0, No Iterations 0
time step continuity errors : sum local = 1.33102e-07, global = 1.27144e-07, cumulative = 1.75869e-06
PIMPLE: Iteration 2
smoothSolver:  Solving for Ux, Initial residual = 6.28318e-05, Final residual = 5.66901e-09, No Iterations 1
smoothSolver:  Solving for Uy, Initial residual = 0.000352461, Final residual = 3.70474e-08, No Iterations 1
smoothSolver:  Solving for e, Initial residual = 0.00105286, Final residual = 1.58766e-06, No Iterations 1
smoothSolver:  Solving for p, Initial residual = 0.000236723, Final residual = 2.08901e-07, No Iterations 2
diagonal:  Solving for rho, Initial residual = 0, Final residual = 0, No Iterations 0
time step continuity errors : sum local = 7.13828e-08, global = 5.98825e-08, cumulative = 1.81857e-06
ExecutionTime = 106.13 s  ClockTime = 106 s

Time = 0.029

Courant Number mean: 0.0881223 max: 0.276049
diagonal:  Solving for rho, Initial residual = 0, Final residual = 0, No Iterations 0
PIMPLE: Iteration 1
smoothSolver:  Solving for Ux, Initial residual = 0.00895738, Final residual = 5.71725e-07, No Iterations 1
smoothSolver:  Solving for Uy, Initial residual = 0.01676, Final residual = 1.8777e-06, No Iterations 1
smoothSolver:  Solving for e, Initial residual = 0.0125273, Final residual = 7.5992e-08, No Iterations 2
smoothSolver:  Solving for p, Initial residual = 0.00678546, Final residual = 4.30277e-07, No Iterations 3
diagonal:  Solving for rho, Initial residual = 0, Final residual = 0, No Iterations 0
time step continuity errors : sum local = 1.47363e-07, global = 1.40963e-07, cumulative = 1.95953e-06
PIMPLE: Iteration 2
smoothSolver:  Solving for Ux, Initial residual = 6.54266e-05, Final residual = 5.50602e-09, No Iterations 1
smoothSolver:  Solving for Uy, Initial residual = 0.000346664, Final residual = 3.63174e-08, No Iterations 1
smoothSolver:  Solving for e, Initial residual = 0.000986442, Final residual = 1.49999e-06, No Iterations 1
smoothSolver:  Solving for p, Initial residual = 0.000220173, Final residual = 2.02332e-07, No Iterations 2
diagonal:  Solving for rho, Initial residual = 0, Final residual = 0, No Iterations 0
time step continuity errors : sum local = 7.1842e-08, global = 5.99869e-08, cumulative = 2.01952e-06
ExecutionTime = 108.75 s  ClockTime = 109 s

Time = 0.03

Courant Number mean: 0.0880851 max: 0.278656
diagonal:  Solving for rho, Initial residual = 0, Final residual = 0, No Iterations 0
PIMPLE: Iteration 1
smoothSolver:  Solving for Ux, Initial residual = 0.00873134, Final residual = 5.50957e-07, No Iterations 1
smoothSolver:  Solving for Uy, Initial residual = 0.0164144, Final residual = 1.84342e-06, No Iterations 1
smoothSolver:  Solving for e, Initial residual = 0.0120257, Final residual = 7.41854e-08, No Iterations 2
smoothSolver:  Solving for p, Initial residual = 0.00641794, Final residual = 4.55545e-07, No Iterations 3
diagonal:  Solving for rho, Initial residual = 0, Final residual = 0, No Iterations 0
time step continuity errors : sum local = 1.62071e-07, global = 1.55182e-07, cumulative = 2.1747e-06
PIMPLE: Iteration 2
smoothSolver:  Solving for Ux, Initial residual = 6.7959e-05, Final residual = 5.36673e-09, No Iterations 1
smoothSolver:  Solving for Uy, Initial residual = 0.00033958, Final residual = 3.54709e-08, No Iterations 1
smoothSolver:  Solving for e, Initial residual = 0.000918196, Final residual = 1.42817e-06, No Iterations 1
smoothSolver:  Solving for p, Initial residual = 0.000207588, Final residual = 1.94724e-07, No Iterations 2
diagonal:  Solving for rho, Initial residual = 0, Final residual = 0, No Iterations 0
time step continuity errors : sum local = 7.17576e-08, global = 5.95026e-08, cumulative = 2.23421e-06
ExecutionTime = 111.36 s  ClockTime = 112 s

Time = 0.031

Courant Number mean: 0.0880422 max: 0.28122
diagonal:  Solving for rho, Initial residual = 0, Final residual = 0, No Iterations 0
PIMPLE: Iteration 1
smoothSolver:  Solving for Ux, Initial residual = 0.00850786, Final residual = 5.34072e-07, No Iterations 1
smoothSolver:  Solving for Uy, Initial residual = 0.0160796, Final residual = 1.80569e-06, No Iterations 1
smoothSolver:  Solving for e, Initial residual = 0.0115308, Final residual = 7.17046e-08, No Iterations 2
smoothSolver:  Solving for p, Initial residual = 0.00605595, Final residual = 4.79341e-07, No Iterations 3
diagonal:  Solving for rho, Initial residual = 0, Final residual = 0, No Iterations 0
time step continuity errors : sum local = 1.76951e-07, global = 1.69582e-07, cumulative = 2.40379e-06
PIMPLE: Iteration 2
smoothSolver:  Solving for Ux, Initial residual = 7.0297e-05, Final residual = 5.2486e-09, No Iterations 1
smoothSolver:  Solving for Uy, Initial residual = 0.000330543, Final residual = 3.44127e-08, No Iterations 1
smoothSolver:  Solving for e, Initial residual = 0.000848275, Final residual = 1.36738e-06, No Iterations 1
smoothSolver:  Solving for p, Initial residual = 0.000193587, Final residual = 1.86178e-07, No Iterations 2
diagonal:  Solving for rho, Initial residual = 0, Final residual = 0, No Iterations 0
time step continuity errors : sum local = 7.12665e-08, global = 5.84111e-08, cumulative = 2.4622e-06
ExecutionTime = 113.97 s  ClockTime = 114 s

Time = 0.032

Courant Number mean: 0.0879947 max: 0.283749
diagonal:  Solving for rho, Initial residual = 0, Final residual = 0, No Iterations 0
PIMPLE: Iteration 1
smoothSolver:  Solving for Ux, Initial residual = 0.00828536, Final residual = 5.18826e-07, No Iterations 1
smoothSolver:  Solving for Uy, Initial residual = 0.0157537, Final residual = 1.76697e-06, No Iterations 1
smoothSolver:  Solving for e, Initial residual = 0.0110402, Final residual = 6.95724e-08, No Iterations 2
smoothSolver:  Solving for p, Initial residual = 0.00569117, Final residual = 5.0035e-07, No Iterations 3
diagonal:  Solving for rho, Initial residual = 0, Final residual = 0, No Iterations 0
time step continuity errors : sum local = 1.91807e-07, global = 1.83942e-07, cumulative = 2.64614e-06
PIMPLE: Iteration 2
smoothSolver:  Solving for Ux, Initial residual = 7.2435e-05, Final residual = 5.14316e-09, No Iterations 1
smoothSolver:  Solving for Uy, Initial residual = 0.00031998, Final residual = 3.32404e-08, No Iterations 1
smoothSolver:  Solving for e, Initial residual = 0.000780603, Final residual = 1.32306e-06, No Iterations 1
smoothSolver:  Solving for p, Initial residual = 0.000179561, Final residual = 1.77146e-07, No Iterations 2
diagonal:  Solving for rho, Initial residual = 0, Final residual = 0, No Iterations 0
time step continuity errors : sum local = 7.05949e-08, global = 5.66185e-08, cumulative = 2.70276e-06
ExecutionTime = 116.59 s  ClockTime = 117 s

Time = 0.033

Courant Number mean: 0.0879481 max: 0.286242
diagonal:  Solving for rho, Initial residual = 0, Final residual = 0, No Iterations 0
PIMPLE: Iteration 1
smoothSolver:  Solving for Ux, Initial residual = 0.00806324, Final residual = 5.03739e-07, No Iterations 1
smoothSolver:  Solving for Uy, Initial residual = 0.0154337, Final residual = 1.72898e-06, No Iterations 1
smoothSolver:  Solving for e, Initial residual = 0.0105604, Final residual = 6.72931e-08, No Iterations 2
smoothSolver:  Solving for p, Initial residual = 0.00532348, Final residual = 5.16552e-07, No Iterations 3
diagonal:  Solving for rho, Initial residual = 0, Final residual = 0, No Iterations 0
time step continuity errors : sum local = 2.06207e-07, global = 1.97898e-07, cumulative = 2.90066e-06
PIMPLE: Iteration 2
smoothSolver:  Solving for Ux, Initial residual = 7.44013e-05, Final residual = 5.02524e-09, No Iterations 1
smoothSolver:  Solving for Uy, Initial residual = 0.000308255, Final residual = 3.19768e-08, No Iterations 1
smoothSolver:  Solving for e, Initial residual = 0.000721949, Final residual = 1.27544e-06, No Iterations 1
smoothSolver:  Solving for p, Initial residual = 0.00016699, Final residual = 1.67948e-07, No Iterations 2
diagonal:  Solving for rho, Initial residual = 0, Final residual = 0, No Iterations 0
time step continuity errors : sum local = 6.96403e-08, global = 5.42604e-08, cumulative = 2.95492e-06
ExecutionTime = 119.18 s  ClockTime = 120 s

Time = 0.034

Courant Number mean: 0.0879212 max: 0.288693
diagonal:  Solving for rho, Initial residual = 0, Final residual = 0, No Iterations 0
PIMPLE: Iteration 1
smoothSolver:  Solving for Ux, Initial residual = 0.00784175, Final residual = 4.89483e-07, No Iterations 1
smoothSolver:  Solving for Uy, Initial residual = 0.0151177, Final residual = 1.68988e-06, No Iterations 1
smoothSolver:  Solving for e, Initial residual = 0.0100854, Final residual = 6.61554e-08, No Iterations 2
smoothSolver:  Solving for p, Initial residual = 0.0049836, Final residual = 5.29203e-07, No Iterations 3
diagonal:  Solving for rho, Initial residual = 0, Final residual = 0, No Iterations 0
time step continuity errors : sum local = 2.19778e-07, global = 2.11011e-07, cumulative = 3.16593e-06
PIMPLE: Iteration 2
smoothSolver:  Solving for Ux, Initial residual = 7.61567e-05, Final residual = 4.89539e-09, No Iterations 1
smoothSolver:  Solving for Uy, Initial residual = 0.000296464, Final residual = 3.05929e-08, No Iterations 1
smoothSolver:  Solving for e, Initial residual = 0.000675265, Final residual = 1.23555e-06, No Iterations 1
smoothSolver:  Solving for p, Initial residual = 0.000157014, Final residual = 1.62171e-07, No Iterations 2
diagonal:  Solving for rho, Initial residual = 0, Final residual = 0, No Iterations 0
time step continuity errors : sum local = 7.00441e-08, global = 5.18239e-08, cumulative = 3.21775e-06
ExecutionTime = 121.79 s  ClockTime = 122 s

Time = 0.035

Courant Number mean: 0.0878946 max: 0.291093
diagonal:  Solving for rho, Initial residual = 0, Final residual = 0, No Iterations 0
PIMPLE: Iteration 1
smoothSolver:  Solving for Ux, Initial residual = 0.0076199, Final residual = 4.76298e-07, No Iterations 1
smoothSolver:  Solving for Uy, Initial residual = 0.0148062, Final residual = 1.64925e-06, No Iterations 1
smoothSolver:  Solving for e, Initial residual = 0.00966773, Final residual = 6.40287e-08, No Iterations 2
smoothSolver:  Solving for p, Initial residual = 0.0046925, Final residual = 5.39852e-07, No Iterations 3
diagonal:  Solving for rho, Initial residual = 0, Final residual = 0, No Iterations 0
time step continuity errors : sum local = 2.33544e-07, global = 2.24258e-07, cumulative = 3.44201e-06
PIMPLE: Iteration 2
smoothSolver:  Solving for Ux, Initial residual = 7.81173e-05, Final residual = 4.7982e-09, No Iterations 1
smoothSolver:  Solving for Uy, Initial residual = 0.000287045, Final residual = 2.93784e-08, No Iterations 1
smoothSolver:  Solving for e, Initial residual = 0.000638153, Final residual = 1.2087e-06, No Iterations 1
smoothSolver:  Solving for p, Initial residual = 0.000150174, Final residual = 1.52612e-07, No Iterations 2
diagonal:  Solving for rho, Initial residual = 0, Final residual = 0, No Iterations 0
time step continuity errors : sum local = 6.85789e-08, global = 4.59644e-08, cumulative = 3.48797e-06
ExecutionTime = 124.41 s  ClockTime = 125 s

Time = 0.036

Courant Number mean: 0.0878645 max: 0.293423
diagonal:  Solving for rho, Initial residual = 0, Final residual = 0, No Iterations 0
PIMPLE: Iteration 1
smoothSolver:  Solving for Ux, Initial residual = 0.00740031, Final residual = 4.63946e-07, No Iterations 1
smoothSolver:  Solving for Uy, Initial residual = 0.0145001, Final residual = 1.6099e-06, No Iterations 1
smoothSolver:  Solving for e, Initial residual = 0.00925767, Final residual = 6.27968e-08, No Iterations 2
smoothSolver:  Solving for p, Initial residual = 0.00441571, Final residual = 5.47328e-07, No Iterations 3
diagonal:  Solving for rho, Initial residual = 0, Final residual = 0, No Iterations 0
time step continuity errors : sum local = 2.46306e-07, global = 2.36629e-07, cumulative = 3.7246e-06
PIMPLE: Iteration 2
smoothSolver:  Solving for Ux, Initial residual = 8.06528e-05, Final residual = 4.73049e-09, No Iterations 1
smoothSolver:  Solving for Uy, Initial residual = 0.000279665, Final residual = 2.84037e-08, No Iterations 1
smoothSolver:  Solving for e, Initial residual = 0.000614524, Final residual = 1.18852e-06, No Iterations 1
smoothSolver:  Solving for p, Initial residual = 0.000145911, Final residual = 1.58704e-07, No Iterations 2
diagonal:  Solving for rho, Initial residual = 0, Final residual = 0, No Iterations 0
time step continuity errors : sum local = 7.40793e-08, global = 3.97978e-08, cumulative = 3.7644e-06
ExecutionTime = 127.02 s  ClockTime = 127 s

Time = 0.037

Courant Number mean: 0.0878311 max: 0.295659
diagonal:  Solving for rho, Initial residual = 0, Final residual = 0, No Iterations 0
PIMPLE: Iteration 1
smoothSolver:  Solving for Ux, Initial residual = 0.0071806, Final residual = 4.52809e-07, No Iterations 1
smoothSolver:  Solving for Uy, Initial residual = 0.0142002, Final residual = 1.57219e-06, No Iterations 1
smoothSolver:  Solving for e, Initial residual = 0.0088414, Final residual = 6.11857e-08, No Iterations 2
smoothSolver:  Solving for p, Initial residual = 0.00415579, Final residual = 5.51694e-07, No Iterations 3
diagonal:  Solving for rho, Initial residual = 0, Final residual = 0, No Iterations 0
time step continuity errors : sum local = 2.57851e-07, global = 2.47914e-07, cumulative = 4.01232e-06
PIMPLE: Iteration 2
smoothSolver:  Solving for Ux, Initial residual = 8.34645e-05, Final residual = 4.69827e-09, No Iterations 1
smoothSolver:  Solving for Uy, Initial residual = 0.000273348, Final residual = 2.76424e-08, No Iterations 1
smoothSolver:  Solving for e, Initial residual = 0.00061413, Final residual = 1.18316e-06, No Iterations 1
smoothSolver:  Solving for p, Initial residual = 0.000145523, Final residual = 2.07705e-07, No Iterations 2
diagonal:  Solving for rho, Initial residual = 0, Final residual = 0, No Iterations 0
time step continuity errors : sum local = 1.0055e-07, global = 3.21812e-08, cumulative = 4.0445e-06
ExecutionTime = 129.65 s  ClockTime = 130 s

Time = 0.038

Courant Number mean: 0.087795 max: 0.297777
diagonal:  Solving for rho, Initial residual = 0, Final residual = 0, No Iterations 0
PIMPLE: Iteration 1
smoothSolver:  Solving for Ux, Initial residual = 0.0069541, Final residual = 4.41702e-07, No Iterations 1
smoothSolver:  Solving for Uy, Initial residual = 0.0139076, Final residual = 1.53584e-06, No Iterations 1
smoothSolver:  Solving for e, Initial residual = 0.00842005, Final residual = 5.96289e-08, No Iterations 2
smoothSolver:  Solving for p, Initial residual = 0.0039123, Final residual = 5.52696e-07, No Iterations 3
diagonal:  Solving for rho, Initial residual = 0, Final residual = 0, No Iterations 0
time step continuity errors : sum local = 2.67872e-07, global = 2.57689e-07, cumulative = 4.30219e-06
PIMPLE: Iteration 2
smoothSolver:  Solving for Ux, Initial residual = 8.92312e-05, Final residual = 4.6711e-09, No Iterations 1
smoothSolver:  Solving for Uy, Initial residual = 0.000268135, Final residual = 2.70089e-08, No Iterations 1
smoothSolver:  Solving for e, Initial residual = 0.000636832, Final residual = 1.20268e-06, No Iterations 1
smoothSolver:  Solving for p, Initial residual = 0.000149533, Final residual = 2.83242e-07, No Iterations 2
diagonal:  Solving for rho, Initial residual = 0, Final residual = 0, No Iterations 0
time step continuity errors : sum local = 1.4199e-07, global = 2.12769e-08, cumulative = 4.32346e-06
ExecutionTime = 132.37 s  ClockTime = 133 s

Time = 0.039

Courant Number mean: 0.0877558 max: 0.299748
diagonal:  Solving for rho, Initial residual = 0, Final residual = 0, No Iterations 0
PIMPLE: Iteration 1
smoothSolver:  Solving for Ux, Initial residual = 0.00671189, Final residual = 4.29562e-07, No Iterations 1
smoothSolver:  Solving for Uy, Initial residual = 0.0136223, Final residual = 1.50009e-06, No Iterations 1
smoothSolver:  Solving for e, Initial residual = 0.00800857, Final residual = 5.85939e-08, No Iterations 2
smoothSolver:  Solving for p, Initial residual = 0.00368224, Final residual = 5.49406e-07, No Iterations 3
diagonal:  Solving for rho, Initial residual = 0, Final residual = 0, No Iterations 0
time step continuity errors : sum local = 2.75702e-07, global = 2.65307e-07, cumulative = 4.58877e-06
PIMPLE: Iteration 2
smoothSolver:  Solving for Ux, Initial residual = 9.71292e-05, Final residual = 4.6698e-09, No Iterations 1
smoothSolver:  Solving for Uy, Initial residual = 0.000264152, Final residual = 2.64741e-08, No Iterations 1
smoothSolver:  Solving for e, Initial residual = 0.000660909, Final residual = 1.23411e-06, No Iterations 1
smoothSolver:  Solving for p, Initial residual = 0.000150337, Final residual = 3.24145e-07, No Iterations 2
diagonal:  Solving for rho, Initial residual = 0, Final residual = 0, No Iterations 0
time step continuity errors : sum local = 1.68015e-07, global = 8.56919e-09, cumulative = 4.59734e-06
ExecutionTime = 134.98 s  ClockTime = 135 s

Time = 0.04

Courant Number mean: 0.0877286 max: 0.301547
diagonal:  Solving for rho, Initial residual = 0, Final residual = 0, No Iterations 0
PIMPLE: Iteration 1
smoothSolver:  Solving for Ux, Initial residual = 0.00645517, Final residual = 4.17707e-07, No Iterations 1
smoothSolver:  Solving for Uy, Initial residual = 0.0133439, Final residual = 1.46547e-06, No Iterations 1
smoothSolver:  Solving for e, Initial residual = 0.00760881, Final residual = 5.75761e-08, No Iterations 2
smoothSolver:  Solving for p, Initial residual = 0.00348093, Final residual = 5.41348e-07, No Iterations 3
diagonal:  Solving for rho, Initial residual = 0, Final residual = 0, No Iterations 0
time step continuity errors : sum local = 2.80853e-07, global = 2.70535e-07, cumulative = 4.86788e-06
PIMPLE: Iteration 2
smoothSolver:  Solving for Ux, Initial residual = 9.5422e-05, Final residual = 4.71472e-09, No Iterations 1
smoothSolver:  Solving for Uy, Initial residual = 0.000261286, Final residual = 2.6032e-08, No Iterations 1
smoothSolver:  Solving for e, Initial residual = 0.000678145, Final residual = 1.23701e-06, No Iterations 1
smoothSolver:  Solving for p, Initial residual = 0.000148667, Final residual = 3.55788e-07, No Iterations 2
diagonal:  Solving for rho, Initial residual = 0, Final residual = 0, No Iterations 0
time step continuity errors : sum local = 1.90402e-07, global = -3.83884e-10, cumulative = 4.86749e-06
ExecutionTime = 137.58 s  ClockTime = 138 s

Time = 0.041

Courant Number mean: 0.0877074 max: 0.303134
diagonal:  Solving for rho, Initial residual = 0, Final residual = 0, No Iterations 0
PIMPLE: Iteration 1
smoothSolver:  Solving for Ux, Initial residual = 0.00618698, Final residual = 4.10348e-07, No Iterations 1
smoothSolver:  Solving for Uy, Initial residual = 0.0130712, Final residual = 1.43305e-06, No Iterations 1
smoothSolver:  Solving for e, Initial residual = 0.00724247, Final residual = 5.67402e-08, No Iterations 2
smoothSolver:  Solving for p, Initial residual = 0.0033062, Final residual = 5.28579e-07, No Iterations 3
diagonal:  Solving for rho, Initial residual = 0, Final residual = 0, No Iterations 0
time step continuity errors : sum local = 2.83099e-07, global = 2.7329e-07, cumulative = 5.14078e-06
PIMPLE: Iteration 2
smoothSolver:  Solving for Ux, Initial residual = 8.90229e-05, Final residual = 4.69797e-09, No Iterations 1
smoothSolver:  Solving for Uy, Initial residual = 0.000259032, Final residual = 2.56394e-08, No Iterations 1
smoothSolver:  Solving for e, Initial residual = 0.00068491, Final residual = 1.23477e-06, No Iterations 1
smoothSolver:  Solving for p, Initial residual = 0.000145719, Final residual = 3.71545e-07, No Iterations 2
diagonal:  Solving for rho, Initial residual = 0, Final residual = 0, No Iterations 0
time step continuity errors : sum local = 2.04996e-07, global = -7.51625e-09, cumulative = 5.13327e-06
ExecutionTime = 140.19 s  ClockTime = 141 s

Time = 0.042

Courant Number mean: 0.0876849 max: 0.304483
diagonal:  Solving for rho, Initial residual = 0, Final residual = 0, No Iterations 0
PIMPLE: Iteration 1
smoothSolver:  Solving for Ux, Initial residual = 0.00591367, Final residual = 4.09629e-07, No Iterations 1
smoothSolver:  Solving for Uy, Initial residual = 0.012803, Final residual = 1.40391e-06, No Iterations 1
smoothSolver:  Solving for e, Initial residual = 0.00688702, Final residual = 5.58526e-08, No Iterations 2
smoothSolver:  Solving for p, Initial residual = 0.00314349, Final residual = 5.13591e-07, No Iterations 3
diagonal:  Solving for rho, Initial residual = 0, Final residual = 0, No Iterations 0
time step continuity errors : sum local = 2.83572e-07, global = 2.74806e-07, cumulative = 5.40807e-06
PIMPLE: Iteration 2
smoothSolver:  Solving for Ux, Initial residual = 6.27227e-05, Final residual = 4.65126e-09, No Iterations 1
smoothSolver:  Solving for Uy, Initial residual = 0.000256273, Final residual = 2.52254e-08, No Iterations 1
smoothSolver:  Solving for e, Initial residual = 0.000684593, Final residual = 1.2299e-06, No Iterations 1
smoothSolver:  Solving for p, Initial residual = 0.000142048, Final residual = 3.68651e-07, No Iterations 2
diagonal:  Solving for rho, Initial residual = 0, Final residual = 0, No Iterations 0
time step continuity errors : sum local = 2.0942e-07, global = -1.06701e-08, cumulative = 5.3974e-06
ExecutionTime = 142.78 s  ClockTime = 143 s

Time = 0.043

Courant Number mean: 0.0876626 max: 0.305587
diagonal:  Solving for rho, Initial residual = 0, Final residual = 0, No Iterations 0
PIMPLE: Iteration 1
smoothSolver:  Solving for Ux, Initial residual = 0.0056441, Final residual = 4.14343e-07, No Iterations 1
smoothSolver:  Solving for Uy, Initial residual = 0.0125388, Final residual = 1.37934e-06, No Iterations 1
smoothSolver:  Solving for e, Initial residual = 0.00655091, Final residual = 5.50508e-08, No Iterations 2
smoothSolver:  Solving for p, Initial residual = 0.00299429, Final residual = 4.96093e-07, No Iterations 3
diagonal:  Solving for rho, Initial residual = 0, Final residual = 0, No Iterations 0
time step continuity errors : sum local = 2.82005e-07, global = 2.74954e-07, cumulative = 5.67236e-06
PIMPLE: Iteration 2
smoothSolver:  Solving for Ux, Initial residual = 5.40872e-05, Final residual = 4.59071e-09, No Iterations 1
smoothSolver:  Solving for Uy, Initial residual = 0.000252118, Final residual = 2.47782e-08, No Iterations 1
smoothSolver:  Solving for e, Initial residual = 0.00064267, Final residual = 1.19928e-06, No Iterations 1
smoothSolver:  Solving for p, Initial residual = 0.000137279, Final residual = 3.40219e-07, No Iterations 2
diagonal:  Solving for rho, Initial residual = 0, Final residual = 0, No Iterations 0
time step continuity errors : sum local = 1.98743e-07, global = -1.68335e-08, cumulative = 5.65552e-06
ExecutionTime = 145.37 s  ClockTime = 146 s

Time = 0.044

Courant Number mean: 0.0876374 max: 0.30645
diagonal:  Solving for rho, Initial residual = 0, Final residual = 0, No Iterations 0
PIMPLE: Iteration 1
smoothSolver:  Solving for Ux, Initial residual = 0.00538306, Final residual = 4.1827e-07, No Iterations 1
smoothSolver:  Solving for Uy, Initial residual = 0.012277, Final residual = 1.35928e-06, No Iterations 1
smoothSolver:  Solving for e, Initial residual = 0.00622733, Final residual = 5.43248e-08, No Iterations 2
smoothSolver:  Solving for p, Initial residual = 0.00286146, Final residual = 4.80261e-07, No Iterations 3
diagonal:  Solving for rho, Initial residual = 0, Final residual = 0, No Iterations 0
time step continuity errors : sum local = 2.80721e-07, global = 2.75714e-07, cumulative = 5.93124e-06
PIMPLE: Iteration 2
smoothSolver:  Solving for Ux, Initial residual = 4.56174e-05, Final residual = 4.50017e-09, No Iterations 1
smoothSolver:  Solving for Uy, Initial residual = 0.000246519, Final residual = 2.42636e-08, No Iterations 1
smoothSolver:  Solving for e, Initial residual = 0.000598432, Final residual = 1.17033e-06, No Iterations 1
smoothSolver:  Solving for p, Initial residual = 0.000132423, Final residual = 3.11938e-07, No Iterations 2
diagonal:  Solving for rho, Initial residual = 0, Final residual = 0, No Iterations 0
time step continuity errors : sum local = 1.87157e-07, global = -2.11098e-08, cumulative = 5.91013e-06
ExecutionTime = 147.97 s  ClockTime = 148 s

Time = 0.045

Courant Number mean: 0.087611 max: 0.307086
diagonal:  Solving for rho, Initial residual = 0, Final residual = 0, No Iterations 0
PIMPLE: Iteration 1
smoothSolver:  Solving for Ux, Initial residual = 0.00513072, Final residual = 4.19356e-07, No Iterations 1
smoothSolver:  Solving for Uy, Initial residual = 0.0120164, Final residual = 1.34119e-06, No Iterations 1
smoothSolver:  Solving for e, Initial residual = 0.00590009, Final residual = 9.93318e-06, No Iterations 1
smoothSolver:  Solving for p, Initial residual = 0.0027568, Final residual = 4.71955e-07, No Iterations 3
diagonal:  Solving for rho, Initial residual = 0, Final residual = 0, No Iterations 0
time step continuity errors : sum local = 2.83329e-07, global = 2.77179e-07, cumulative = 6.1873e-06
PIMPLE: Iteration 2
smoothSolver:  Solving for Ux, Initial residual = 4.72023e-05, Final residual = 4.42325e-09, No Iterations 1
smoothSolver:  Solving for Uy, Initial residual = 0.000240401, Final residual = 2.37311e-08, No Iterations 1
smoothSolver:  Solving for e, Initial residual = 0.000546683, Final residual = 1.1234e-06, No Iterations 1
smoothSolver:  Solving for p, Initial residual = 0.000126449, Final residual = 2.69921e-07, No Iterations 2
diagonal:  Solving for rho, Initial residual = 0, Final residual = 0, No Iterations 0
time step continuity errors : sum local = 1.6615e-07, global = -2.52144e-08, cumulative = 6.16209e-06
ExecutionTime = 150.54 s  ClockTime = 151 s

Time = 0.046

Courant Number mean: 0.0875843 max: 0.307518
diagonal:  Solving for rho, Initial residual = 0, Final residual = 0, No Iterations 0
PIMPLE: Iteration 1
smoothSolver:  Solving for Ux, Initial residual = 0.00489115, Final residual = 4.17889e-07, No Iterations 1
smoothSolver:  Solving for Uy, Initial residual = 0.0117566, Final residual = 1.32243e-06, No Iterations 1
smoothSolver:  Solving for e, Initial residual = 0.00557847, Final residual = 9.66178e-06, No Iterations 1
smoothSolver:  Solving for p, Initial residual = 0.00266037, Final residual = 4.73402e-07, No Iterations 3
diagonal:  Solving for rho, Initial residual = 0, Final residual = 0, No Iterations 0
time step continuity errors : sum local = 2.91557e-07, global = 2.78834e-07, cumulative = 6.44092e-06
PIMPLE: Iteration 2
smoothSolver:  Solving for Ux, Initial residual = 5.65888e-05, Final residual = 4.45126e-09, No Iterations 1
smoothSolver:  Solving for Uy, Initial residual = 0.000235002, Final residual = 2.32704e-08, No Iterations 1
smoothSolver:  Solving for e, Initial residual = 0.00049015, Final residual = 1.08588e-06, No Iterations 1
smoothSolver:  Solving for p, Initial residual = 0.000119826, Final residual = 2.21883e-07, No Iterations 2
diagonal:  Solving for rho, Initial residual = 0, Final residual = 0, No Iterations 0
time step continuity errors : sum local = 1.39968e-07, global = -2.60568e-08, cumulative = 6.41487e-06
ExecutionTime = 153.12 s  ClockTime = 153 s

Time = 0.047

Courant Number mean: 0.0875619 max: 0.307764
diagonal:  Solving for rho, Initial residual = 0, Final residual = 0, No Iterations 0
PIMPLE: Iteration 1
smoothSolver:  Solving for Ux, Initial residual = 0.00466963, Final residual = 4.1345e-07, No Iterations 1
smoothSolver:  Solving for Uy, Initial residual = 0.0114975, Final residual = 1.3011e-06, No Iterations 1
smoothSolver:  Solving for e, Initial residual = 0.0052893, Final residual = 9.39512e-06, No Iterations 1
smoothSolver:  Solving for p, Initial residual = 0.0025739, Final residual = 4.84556e-07, No Iterations 3
diagonal:  Solving for rho, Initial residual = 0, Final residual = 0, No Iterations 0
time step continuity errors : sum local = 3.05817e-07, global = 2.80576e-07, cumulative = 6.69544e-06
PIMPLE: Iteration 2
smoothSolver:  Solving for Ux, Initial residual = 6.78099e-05, Final residual = 4.50409e-09, No Iterations 1
smoothSolver:  Solving for Uy, Initial residual = 0.000227988, Final residual = 2.26265e-08, No Iterations 1
smoothSolver:  Solving for e, Initial residual = 0.000439892, Final residual = 1.05832e-06, No Iterations 1
smoothSolver:  Solving for p, Initial residual = 0.000113573, Final residual = 1.75728e-07, No Iterations 2
diagonal:  Solving for rho, Initial residual = 0, Final residual = 0, No Iterations 0
time step continuity errors : sum local = 1.13478e-07, global = -2.50894e-08, cumulative = 6.67035e-06
ExecutionTime = 155.68 s  ClockTime = 156 s

Time = 0.048

Courant Number mean: 0.0875435 max: 0.307857
diagonal:  Solving for rho, Initial residual = 0, Final residual = 0, No Iterations 0
PIMPLE: Iteration 1
smoothSolver:  Solving for Ux, Initial residual = 0.00446937, Final residual = 4.0614e-07, No Iterations 1
smoothSolver:  Solving for Uy, Initial residual = 0.01124, Final residual = 1.27609e-06, No Iterations 1
smoothSolver:  Solving for e, Initial residual = 0.00501906, Final residual = 9.14118e-06, No Iterations 1
smoothSolver:  Solving for p, Initial residual = 0.00248397, Final residual = 4.85606e-07, No Iterations 3
diagonal:  Solving for rho, Initial residual = 0, Final residual = 0, No Iterations 0
time step continuity errors : sum local = 3.13734e-07, global = 2.81935e-07, cumulative = 6.95229e-06
PIMPLE: Iteration 2
smoothSolver:  Solving for Ux, Initial residual = 7.80719e-05, Final residual = 4.55867e-09, No Iterations 1
smoothSolver:  Solving for Uy, Initial residual = 0.000220312, Final residual = 2.18986e-08, No Iterations 1
smoothSolver:  Solving for e, Initial residual = 0.000413605, Final residual = 1.04113e-06, No Iterations 1
smoothSolver:  Solving for p, Initial residual = 0.000108069, Final residual = 1.42521e-07, No Iterations 2
diagonal:  Solving for rho, Initial residual = 0, Final residual = 0, No Iterations 0
time step continuity errors : sum local = 9.41183e-08, global = -2.21475e-08, cumulative = 6.93014e-06
ExecutionTime = 158.25 s  ClockTime = 159 s

Time = 0.049

Courant Number mean: 0.0875229 max: 0.307815
diagonal:  Solving for rho, Initial residual = 0, Final residual = 0, No Iterations 0
PIMPLE: Iteration 1
smoothSolver:  Solving for Ux, Initial residual = 0.00429134, Final residual = 3.96054e-07, No Iterations 1
smoothSolver:  Solving for Uy, Initial residual = 0.010985, Final residual = 1.24719e-06, No Iterations 1
smoothSolver:  Solving for e, Initial residual = 0.00476738, Final residual = 8.89619e-06, No Iterations 1
smoothSolver:  Solving for p, Initial residual = 0.00238802, Final residual = 4.74721e-07, No Iterations 3
diagonal:  Solving for rho, Initial residual = 0, Final residual = 0, No Iterations 0
time step continuity errors : sum local = 3.13644e-07, global = 2.82309e-07, cumulative = 7.21245e-06
PIMPLE: Iteration 2
smoothSolver:  Solving for Ux, Initial residual = 8.58838e-05, Final residual = 4.58306e-09, No Iterations 1
smoothSolver:  Solving for Uy, Initial residual = 0.000212776, Final residual = 2.11823e-08, No Iterations 1
smoothSolver:  Solving for e, Initial residual = 0.00038837, Final residual = 1.01819e-06, No Iterations 1
smoothSolver:  Solving for p, Initial residual = 0.000103788, Final residual = 1.17228e-07, No Iterations 2
diagonal:  Solving for rho, Initial residual = 0, Final residual = 0, No Iterations 0
time step continuity errors : sum local = 7.90928e-08, global = -1.77681e-08, cumulative = 7.19468e-06
ExecutionTime = 160.82 s  ClockTime = 161 s

Time = 0.05

Courant Number mean: 0.0875004 max: 0.307647
diagonal:  Solving for rho, Initial residual = 0, Final residual = 0, No Iterations 0
PIMPLE: Iteration 1
smoothSolver:  Solving for Ux, Initial residual = 0.00413504, Final residual = 3.84272e-07, No Iterations 1
[...]
PIMPLE: Iteration 2
smoothSolver:  Solving for Ux, Initial residual = 6.64625e-05, Final residual = 5.12738e-09, No Iterations 1
smoothSolver:  Solving for Uy, Initial residual = 0.000156867, Final residual = 1.62177e-08, No Iterations 1
smoothSolver:  Solving for e, Initial residual = 0.000295637, Final residual = 9.2546e-07, No Iterations 1
smoothSolver:  Solving for p, Initial residual = 7.68072e-05, Final residual = 8.71642e-08, No Iterations 2
diagonal:  Solving for rho, Initial residual = 0, Final residual = 0, No Iterations 0
time step continuity errors : sum local = 8.2735e-08, global = 1.67297e-08, cumulative = 1.32868e-05
ExecutionTime = 222.4 s  ClockTime = 223 s

Time = 0.074

Courant Number mean: 0.0872177 max: 0.317611
diagonal:  Solving for rho, Initial residual = 0, Final residual = 0, No Iterations 0
PIMPLE: Iteration 1
smoothSolver:  Solving for Ux, Initial residual = 0.00266651, Final residual = 2.65965e-07, No Iterations 1
smoothSolver:  Solving for Uy, Initial residual = 0.00684467, Final residual = 6.93466e-07, No Iterations 1
smoothSolver:  Solving for e, Initial residual = 0.00275633, Final residual = 5.54435e-06, No Iterations 1
smoothSolver:  Solving for p, Initial residual = 0.00119034, Final residual = 1.6107e-07, No Iterations 3
diagonal:  Solving for rho, Initial residual = 0, Final residual = 0, No Iterations 0
time step continuity errors : sum local = 1.52923e-07, global = 1.43725e-07, cumulative = 1.34305e-05
PIMPLE: Iteration 2
smoothSolver:  Solving for Ux, Initial residual = 6.75405e-05, Final residual = 5.28934e-09, No Iterations 1
smoothSolver:  Solving for Uy, Initial residual = 0.000152597, Final residual = 1.60389e-08, No Iterations 1
smoothSolver:  Solving for e, Initial residual = 0.000303643, Final residual = 9.45972e-07, No Iterations 1
smoothSolver:  Solving for p, Initial residual = 7.63044e-05, Final residual = 9.221e-08, No Iterations 2
diagonal:  Solving for rho, Initial residual = 0, Final residual = 0, No Iterations 0
time step continuity errors : sum local = 8.83762e-08, global = 2.0282e-08, cumulative = 1.34508e-05
ExecutionTime = 224.95 s  ClockTime = 225 s

Time = 0.075

Courant Number mean: 0.0872106 max: 0.316083
diagonal:  Solving for rho, Initial residual = 0, Final residual = 0, No Iterations 0
PIMPLE: Iteration 1
smoothSolver:  Solving for Ux, Initial residual = 0.00263535, Final residual = 2.65347e-07, No Iterations 1
smoothSolver:  Solving for Uy, Initial residual = 0.00672463, Final residual = 6.8119e-07, No Iterations 1
smoothSolver:  Solving for e, Initial residual = 0.0027773, Final residual = 5.55677e-06, No Iterations 1
smoothSolver:  Solving for p, Initial residual = 0.00118328, Final residual = 1.5061e-07, No Iterations 3
diagonal:  Solving for rho, Initial residual = 0, Final residual = 0, No Iterations 0
time step continuity errors : sum local = 1.44389e-07, global = 1.27607e-07, cumulative = 1.35784e-05
PIMPLE: Iteration 2
smoothSolver:  Solving for Ux, Initial residual = 6.7762e-05, Final residual = 5.45424e-09, No Iterations 1
smoothSolver:  Solving for Uy, Initial residual = 0.000147277, Final residual = 1.58116e-08, No Iterations 1
smoothSolver:  Solving for e, Initial residual = 0.000311646, Final residual = 9.74808e-07, No Iterations 1
smoothSolver:  Solving for p, Initial residual = 7.75126e-05, Final residual = 9.72092e-08, No Iterations 2
diagonal:  Solving for rho, Initial residual = 0, Final residual = 0, No Iterations 0
time step continuity errors : sum local = 9.40549e-08, global = 2.6167e-08, cumulative = 1.36046e-05
ExecutionTime = 227.5 s  ClockTime = 228 s

Time = 0.076

Courant Number mean: 0.0872028 max: 0.315318
diagonal:  Solving for rho, Initial residual = 0, Final residual = 0, No Iterations 0
PIMPLE: Iteration 1
smoothSolver:  Solving for Ux, Initial residual = 0.002606, Final residual = 2.66005e-07, No Iterations 1
smoothSolver:  Solving for Uy, Initial residual = 0.00661133, Final residual = 6.70817e-07, No Iterations 1
smoothSolver:  Solving for e, Initial residual = 0.00280773, Final residual = 5.58335e-06, No Iterations 1
smoothSolver:  Solving for p, Initial residual = 0.00117739, Final residual = 1.51375e-07, No Iterations 3
diagonal:  Solving for rho, Initial residual = 0, Final residual = 0, No Iterations 0
time step continuity errors : sum local = 1.46508e-07, global = 1.11855e-07, cumulative = 1.37164e-05
PIMPLE: Iteration 2
smoothSolver:  Solving for Ux, Initial residual = 7.42828e-05, Final residual = 5.80213e-09, No Iterations 1
smoothSolver:  Solving for Uy, Initial residual = 0.000142419, Final residual = 1.59385e-08, No Iterations 1
smoothSolver:  Solving for e, Initial residual = 0.000327729, Final residual = 9.93264e-07, No Iterations 1
smoothSolver:  Solving for p, Initial residual = 8.03129e-05, Final residual = 1.06959e-07, No Iterations 2
diagonal:  Solving for rho, Initial residual = 0, Final residual = 0, No Iterations 0
time step continuity errors : sum local = 1.04453e-07, global = 3.1673e-08, cumulative = 1.37481e-05
ExecutionTime = 230.06 s  ClockTime = 230 s

Time = 0.077

Courant Number mean: 0.0871947 max: 0.314507
diagonal:  Solving for rho, Initial residual = 0, Final residual = 0, No Iterations 0
PIMPLE: Iteration 1
smoothSolver:  Solving for Ux, Initial residual = 0.00257783, Final residual = 2.69649e-07, No Iterations 1
smoothSolver:  Solving for Uy, Initial residual = 0.00650464, Final residual = 6.64057e-07, No Iterations 1
smoothSolver:  Solving for e, Initial residual = 0.00284697, Final residual = 5.62945e-06, No Iterations 1
smoothSolver:  Solving for p, Initial residual = 0.00117196, Final residual = 1.62253e-07, No Iterations 3
diagonal:  Solving for rho, Initial residual = 0, Final residual = 0, No Iterations 0
time step continuity errors : sum local = 1.58505e-07, global = 9.61075e-08, cumulative = 1.38442e-05
PIMPLE: Iteration 2
smoothSolver:  Solving for Ux, Initial residual = 8.11418e-05, Final residual = 6.37067e-09, No Iterations 1
smoothSolver:  Solving for Uy, Initial residual = 0.000138654, Final residual = 1.58202e-08, No Iterations 1
smoothSolver:  Solving for e, Initial residual = 0.000339269, Final residual = 1.00162e-06, No Iterations 1
smoothSolver:  Solving for p, Initial residual = 8.09324e-05, Final residual = 1.14081e-07, No Iterations 2
diagonal:  Solving for rho, Initial residual = 0, Final residual = 0, No Iterations 0
time step continuity errors : sum local = 1.12429e-07, global = 3.86026e-08, cumulative = 1.38828e-05
ExecutionTime = 232.61 s  ClockTime = 233 s

Time = 0.078

Courant Number mean: 0.0871863 max: 0.313872
diagonal:  Solving for rho, Initial residual = 0, Final residual = 0, No Iterations 0
PIMPLE: Iteration 1
smoothSolver:  Solving for Ux, Initial residual = 0.00254891, Final residual = 2.7702e-07, No Iterations 1
smoothSolver:  Solving for Uy, Initial residual = 0.00640369, Final residual = 6.62473e-07, No Iterations 1
smoothSolver:  Solving for e, Initial residual = 0.00288981, Final residual = 5.6817e-06, No Iterations 1
smoothSolver:  Solving for p, Initial residual = 0.00117359, Final residual = 1.80372e-07, No Iterations 3
diagonal:  Solving for rho, Initial residual = 0, Final residual = 0, No Iterations 0
time step continuity errors : sum local = 1.77822e-07, global = 8.06794e-08, cumulative = 1.39635e-05
PIMPLE: Iteration 2
smoothSolver:  Solving for Ux, Initial residual = 8.73461e-05, Final residual = 7.19431e-09, No Iterations 1
smoothSolver:  Solving for Uy, Initial residual = 0.00013513, Final residual = 1.55516e-08, No Iterations 1
smoothSolver:  Solving for e, Initial residual = 0.000347426, Final residual = 1.0042e-06, No Iterations 1
smoothSolver:  Solving for p, Initial residual = 8.07529e-05, Final residual = 1.20491e-07, No Iterations 2
diagonal:  Solving for rho, Initial residual = 0, Final residual = 0, No Iterations 0
time step continuity errors : sum local = 1.19815e-07, global = 4.7634e-08, cumulative = 1.40111e-05
ExecutionTime = 235.17 s  ClockTime = 236 s

Time = 0.079

Courant Number mean: 0.0871775 max: 0.313417
diagonal:  Solving for rho, Initial residual = 0, Final residual = 0, No Iterations 0
PIMPLE: Iteration 1
smoothSolver:  Solving for Ux, Initial residual = 0.00251839, Final residual = 2.88565e-07, No Iterations 1
smoothSolver:  Solving for Uy, Initial residual = 0.00630743, Final residual = 6.66143e-07, No Iterations 1
smoothSolver:  Solving for e, Initial residual = 0.00293719, Final residual = 5.74e-06, No Iterations 1
smoothSolver:  Solving for p, Initial residual = 0.00118127, Final residual = 2.06022e-07, No Iterations 3
diagonal:  Solving for rho, Initial residual = 0, Final residual = 0, No Iterations 0
time step continuity errors : sum local = 2.04944e-07, global = 6.5964e-08, cumulative = 1.40771e-05
PIMPLE: Iteration 2
smoothSolver:  Solving for Ux, Initial residual = 9.40428e-05, Final residual = 8.4957e-09, No Iterations 1
smoothSolver:  Solving for Uy, Initial residual = 0.000132074, Final residual = 1.51733e-08, No Iterations 1
smoothSolver:  Solving for e, Initial residual = 0.000359095, Final residual = 1.00097e-06, No Iterations 1
smoothSolver:  Solving for p, Initial residual = 8.03627e-05, Final residual = 1.26966e-07, No Iterations 2
diagonal:  Solving for rho, Initial residual = 0, Final residual = 0, No Iterations 0
time step continuity errors : sum local = 1.27379e-07, global = 5.79857e-08, cumulative = 1.41351e-05
ExecutionTime = 237.72 s  ClockTime = 238 s

Time = 0.08

Courant Number mean: 0.0871685 max: 0.313192
diagonal:  Solving for rho, Initial residual = 0, Final residual = 0, No Iterations 0
PIMPLE: Iteration 1
smoothSolver:  Solving for Ux, Initial residual = 0.0024853, Final residual = 3.03694e-07, No Iterations 1
smoothSolver:  Solving for Uy, Initial residual = 0.00621439, Final residual = 6.75845e-07, No Iterations 1
smoothSolver:  Solving for e, Initial residual = 0.00298435, Final residual = 5.80569e-06, No Iterations 1
smoothSolver:  Solving for p, Initial residual = 0.00119155, Final residual = 2.36932e-07, No Iterations 3
diagonal:  Solving for rho, Initial residual = 0, Final residual = 0, No Iterations 0
time step continuity errors : sum local = 2.37802e-07, global = 5.2783e-08, cumulative = 1.41878e-05
PIMPLE: Iteration 2
smoothSolver:  Solving for Ux, Initial residual = 0.000100086, Final residual = 1.02968e-08, No Iterations 1
smoothSolver:  Solving for Uy, Initial residual = 0.000129654, Final residual = 1.48784e-08, No Iterations 1
smoothSolver:  Solving for e, Initial residual = 0.000373603, Final residual = 1.00374e-06, No Iterations 1
smoothSolver:  Solving for p, Initial residual = 8.02232e-05, Final residual = 1.38449e-07, No Iterations 2
diagonal:  Solving for rho, Initial residual = 0, Final residual = 0, No Iterations 0
time step continuity errors : sum local = 1.40131e-07, global = 6.9972e-08, cumulative = 1.42578e-05
ExecutionTime = 240.28 s  ClockTime = 241 s

Time = 0.081

Courant Number mean: 0.087161 max: 0.313114
diagonal:  Solving for rho, Initial residual = 0, Final residual = 0, No Iterations 0
PIMPLE: Iteration 1
smoothSolver:  Solving for Ux, Initial residual = 0.00244713, Final residual = 3.21118e-07, No Iterations 1
smoothSolver:  Solving for Uy, Initial residual = 0.00612656, Final residual = 6.91895e-07, No Iterations 1
smoothSolver:  Solving for e, Initial residual = 0.00302922, Final residual = 5.88648e-06, No Iterations 1
smoothSolver:  Solving for p, Initial residual = 0.00120401, Final residual = 2.71059e-07, No Iterations 3
diagonal:  Solving for rho, Initial residual = 0, Final residual = 0, No Iterations 0
time step continuity errors : sum local = 2.74477e-07, global = 4.19139e-08, cumulative = 1.42997e-05
PIMPLE: Iteration 2
smoothSolver:  Solving for Ux, Initial residual = 0.000104881, Final residual = 1.25827e-08, No Iterations 1
smoothSolver:  Solving for Uy, Initial residual = 0.000128219, Final residual = 1.47108e-08, No Iterations 1
smoothSolver:  Solving for e, Initial residual = 0.000386513, Final residual = 1.01045e-06, No Iterations 1
smoothSolver:  Solving for p, Initial residual = 8.0511e-05, Final residual = 1.49985e-07, No Iterations 2
diagonal:  Solving for rho, Initial residual = 0, Final residual = 0, No Iterations 0
time step continuity errors : sum local = 1.53154e-07, global = 8.67979e-08, cumulative = 1.43865e-05
ExecutionTime = 242.83 s  ClockTime = 243 s

Time = 0.082

Courant Number mean: 0.0871552 max: 0.313174
diagonal:  Solving for rho, Initial residual = 0, Final residual = 0, No Iterations 0
PIMPLE: Iteration 1
smoothSolver:  Solving for Ux, Initial residual = 0.00240177, Final residual = 3.37654e-07, No Iterations 1
smoothSolver:  Solving for Uy, Initial residual = 0.00605859, Final residual = 7.15068e-07, No Iterations 1
smoothSolver:  Solving for e, Initial residual = 0.00306044, Final residual = 5.94877e-06, No Iterations 1
smoothSolver:  Solving for p, Initial residual = 0.00121503, Final residual = 3.03597e-07, No Iterations 3
diagonal:  Solving for rho, Initial residual = 0, Final residual = 0, No Iterations 0
time step continuity errors : sum local = 3.10162e-07, global = 3.4534e-08, cumulative = 1.44211e-05
PIMPLE: Iteration 2
smoothSolver:  Solving for Ux, Initial residual = 0.00010824, Final residual = 1.52456e-08, No Iterations 1
smoothSolver:  Solving for Uy, Initial residual = 0.00012674, Final residual = 1.46643e-08, No Iterations 1
smoothSolver:  Solving for e, Initial residual = 0.000398196, Final residual = 1.01442e-06, No Iterations 1
smoothSolver:  Solving for p, Initial residual = 8.10548e-05, Final residual = 1.59675e-07, No Iterations 2
diagonal:  Solving for rho, Initial residual = 0, Final residual = 0, No Iterations 0
time step continuity errors : sum local = 1.64501e-07, global = 9.72928e-08, cumulative = 1.45184e-05
ExecutionTime = 245.38 s  ClockTime = 246 s

Time = 0.083

Courant Number mean: 0.0871491 max: 0.313356
diagonal:  Solving for rho, Initial residual = 0, Final residual = 0, No Iterations 0
PIMPLE: Iteration 1
smoothSolver:  Solving for Ux, Initial residual = 0.00236055, Final residual = 3.52332e-07, No Iterations 1
smoothSolver:  Solving for Uy, Initial residual = 0.00601085, Final residual = 7.44484e-07, No Iterations 1
smoothSolver:  Solving for e, Initial residual = 0.00307334, Final residual = 6.02098e-06, No Iterations 1
smoothSolver:  Solving for p, Initial residual = 0.00122136, Final residual = 3.33982e-07, No Iterations 3
diagonal:  Solving for rho, Initial residual = 0, Final residual = 0, No Iterations 0
time step continuity errors : sum local = 3.44245e-07, global = 3.01181e-08, cumulative = 1.45485e-05
PIMPLE: Iteration 2
smoothSolver:  Solving for Ux, Initial residual = 0.000109404, Final residual = 1.78686e-08, No Iterations 1
smoothSolver:  Solving for Uy, Initial residual = 0.000125222, Final residual = 1.4705e-08, No Iterations 1
smoothSolver:  Solving for e, Initial residual = 0.000405075, Final residual = 1.01757e-06, No Iterations 1
smoothSolver:  Solving for p, Initial residual = 8.08867e-05, Final residual = 1.63668e-07, No Iterations 2
diagonal:  Solving for rho, Initial residual = 0, Final residual = 0, No Iterations 0
time step continuity errors : sum local = 1.70122e-07, global = 9.98692e-08, cumulative = 1.46483e-05
ExecutionTime = 247.94 s  ClockTime = 248 s

Time = 0.084

Courant Number mean: 0.0871423 max: 0.313641
diagonal:  Solving for rho, Initial residual = 0, Final residual = 0, No Iterations 0
PIMPLE: Iteration 1
smoothSolver:  Solving for Ux, Initial residual = 0.00234564, Final residual = 3.69066e-07, No Iterations 1
smoothSolver:  Solving for Uy, Initial residual = 0.00597481, Final residual = 7.7817e-07, No Iterations 1
smoothSolver:  Solving for e, Initial residual = 0.00307923, Final residual = 6.09689e-06, No Iterations 1
smoothSolver:  Solving for p, Initial residual = 0.00122658, Final residual = 3.61797e-07, No Iterations 3
diagonal:  Solving for rho, Initial residual = 0, Final residual = 0, No Iterations 0
time step continuity errors : sum local = 3.76241e-07, global = 2.77244e-08, cumulative = 1.46761e-05
PIMPLE: Iteration 2
smoothSolver:  Solving for Ux, Initial residual = 0.000108272, Final residual = 2.02502e-08, No Iterations 1
smoothSolver:  Solving for Uy, Initial residual = 0.000123255, Final residual = 1.4759e-08, No Iterations 1
smoothSolver:  Solving for e, Initial residual = 0.000407033, Final residual = 1.02658e-06, No Iterations 1
smoothSolver:  Solving for p, Initial residual = 8.09611e-05, Final residual = 1.63947e-07, No Iterations 2
diagonal:  Solving for rho, Initial residual = 0, Final residual = 0, No Iterations 0
time step continuity errors : sum local = 1.71938e-07, global = 1.00244e-07, cumulative = 1.47763e-05
ExecutionTime = 250.49 s  ClockTime = 251 s

Time = 0.085

Courant Number mean: 0.0871347 max: 0.313997
diagonal:  Solving for rho, Initial residual = 0, Final residual = 0, No Iterations 0
PIMPLE: Iteration 1
smoothSolver:  Solving for Ux, Initial residual = 0.00234869, Final residual = 3.88733e-07, No Iterations 1
smoothSolver:  Solving for Uy, Initial residual = 0.00594526, Final residual = 8.14503e-07, No Iterations 1
smoothSolver:  Solving for e, Initial residual = 0.0030802, Final residual = 6.16198e-06, No Iterations 1
smoothSolver:  Solving for p, Initial residual = 0.00123117, Final residual = 3.86621e-07, No Iterations 3
diagonal:  Solving for rho, Initial residual = 0, Final residual = 0, No Iterations 0
time step continuity errors : sum local = 4.05653e-07, global = 2.71844e-08, cumulative = 1.48035e-05
PIMPLE: Iteration 2
smoothSolver:  Solving for Ux, Initial residual = 0.000104934, Final residual = 2.22664e-08, No Iterations 1
smoothSolver:  Solving for Uy, Initial residual = 0.000118509, Final residual = 1.46161e-08, No Iterations 1
smoothSolver:  Solving for e, Initial residual = 0.000408726, Final residual = 1.06358e-06, No Iterations 1
smoothSolver:  Solving for p, Initial residual = 8.43309e-05, Final residual = 1.62439e-07, No Iterations 2
diagonal:  Solving for rho, Initial residual = 0, Final residual = 0, No Iterations 0
time step continuity errors : sum local = 1.71888e-07, global = 1.01213e-07, cumulative = 1.49047e-05
ExecutionTime = 253.05 s  ClockTime = 253 s

Time = 0.086

Courant Number mean: 0.0871261 max: 0.314403
diagonal:  Solving for rho, Initial residual = 0, Final residual = 0, No Iterations 0
PIMPLE: Iteration 1
smoothSolver:  Solving for Ux, Initial residual = 0.00236866, Final residual = 4.10971e-07, No Iterations 1
smoothSolver:  Solving for Uy, Initial residual = 0.00591449, Final residual = 8.51512e-07, No Iterations 1
smoothSolver:  Solving for e, Initial residual = 0.00308328, Final residual = 6.24413e-06, No Iterations 1
smoothSolver:  Solving for p, Initial residual = 0.00123223, Final residual = 3.95988e-07, No Iterations 3
diagonal:  Solving for rho, Initial residual = 0, Final residual = 0, No Iterations 0
time step continuity errors : sum local = 4.19213e-07, global = 3.23575e-08, cumulative = 1.49371e-05
PIMPLE: Iteration 2
smoothSolver:  Solving for Ux, Initial residual = 9.96124e-05, Final residual = 2.35786e-08, No Iterations 1
smoothSolver:  Solving for Uy, Initial residual = 0.000116104, Final residual = 1.47214e-08, No Iterations 1
smoothSolver:  Solving for e, Initial residual = 0.000403415, Final residual = 1.08585e-06, No Iterations 1
smoothSolver:  Solving for p, Initial residual = 8.47101e-05, Final residual = 1.57111e-07, No Iterations 2
diagonal:  Solving for rho, Initial residual = 0, Final residual = 0, No Iterations 0
time step continuity errors : sum local = 1.67752e-07, global = 9.81068e-08, cumulative = 1.50352e-05
ExecutionTime = 255.61 s  ClockTime = 256 s

Time = 0.087

Courant Number mean: 0.0871161 max: 0.314835
diagonal:  Solving for rho, Initial residual = 0, Final residual = 0, No Iterations 0
PIMPLE: Iteration 1
