/work/05124/newman/stampede2/openFOAM_3/mach-3-tunnel-with-step/rhoCentralFoam30
Wed May  1 23:21:59 CDT 2019
/*---------------------------------------------------------------------------*\
  =========                 |
  \\      /  F ield         | OpenFOAM: The Open Source CFD Toolbox
   \\    /   O peration     | Website:  https://openfoam.org
    \\  /    A nd           | Version:  6.0
     \\/     M anipulation  |
\*---------------------------------------------------------------------------*/
Build  : 6.0
Exec   : blockMesh
Date   : May 01 2019
Time   : 23:22:01
Host   : "c406-054.stampede2.tacc.utexas.edu"
PID    : 256518
I/O    : uncollated
Case   : /work/05124/newman/stampede2/openFOAM_3/mach-3-tunnel-with-step/rhoCentralFoam30
nProcs : 1
sigFpe : Enabling floating point exception trapping (FOAM_SIGFPE).
fileModificationChecking : Monitoring run-time modified files using timeStampMaster (fileModificationSkew 10)
allowSystemOperations : Allowing user-supplied system call operations

// * * * * * * * * * * * * * * * * * * * * * * * * * * * * * * * * * * * * * //
Create time

--> FOAM Warning : 
    From function void Foam::Time::setControls()
    in file db/Time/Time.C at line 205
    Increasing the timePrecision from 6 to 16 to support the formatting of the current time directory 3.9992881

Deleting polyMesh directory
    "/work/05124/newman/stampede2/openFOAM_3/mach-3-tunnel-with-step/rhoCentralFoam30/constant/polyMesh"
Creating block mesh from
    "/work/05124/newman/stampede2/openFOAM_3/mach-3-tunnel-with-step/rhoCentralFoam30/system/blockMeshDict"
No non-linear block edges defined
No non-planar block faces defined
Creating topology blocks
Creating topology patches

Creating block mesh topology
--> FOAM Warning : 
    From function Foam::polyMesh::polyMesh(const Foam::IOobject &, const Foam::Xfer<Foam::Field<Foam::Vector<double>>> &, const Foam::List<Foam::cellShape> &, const Foam::List<Foam::List<Foam::face>> &, const Foam::List<Foam::word> &, const Foam::PtrList<Foam::dictionary> &, const Foam::word &, const Foam::word &, bool)
    in file meshes/polyMesh/polyMeshFromShapeMesh.C at line 871
    Found 6 undefined faces in mesh; adding to default patch.

Check topology

	Basic statistics
		Number of internal faces : 2
		Number of boundary faces : 14
		Number of defined boundary faces : 14
		Number of undefined boundary faces : 0
	Checking patch -> block consistency

Creating block offsets
Creating merge list .

Creating polyMesh from blockMesh
Creating points with scale 1
    Block 0 cell size :
        i : 0.02 .. 0.02
        j : 0.00666667 .. 0.00666667
        k : 0.1 .. 0.1

    Block 1 cell size :
        i : 0.02 .. 0.02
        j : 0.0266667 .. 0.0266667
        k : 0.1 .. 0.1

    Block 2 cell size :
        i : 0.08 .. 0.08
        j : 0.0266667 .. 0.0266667
        k : 0.1 .. 0.1

Creating cells
Creating patches

Writing polyMesh
----------------
Mesh Information
----------------
  boundingBox: (0 0 -0.05) (3 1 0.05)
  nPoints: 5642
  nCells: 2700
  nFaces: 10920
  nInternalFaces: 5280
----------------
Patches
----------------
  patch 0 (start: 5280 size: 60) name: inlet
  patch 1 (start: 5340 size: 30) name: outlet
  patch 2 (start: 5370 size: 60) name: top
  patch 3 (start: 5430 size: 30) name: bottom
  patch 4 (start: 5460 size: 60) name: step
  patch 5 (start: 5520 size: 5400) name: defaultFaces

End

/*---------------------------------------------------------------------------*\
  =========                 |
  \\      /  F ield         | OpenFOAM: The Open Source CFD Toolbox
   \\    /   O peration     | Website:  https://openfoam.org
    \\  /    A nd           | Version:  6.0
     \\/     M anipulation  |
\*---------------------------------------------------------------------------*/
Build  : 6.0
Exec   : checkMesh
Date   : May 01 2019
Time   : 23:22:03
Host   : "c406-054.stampede2.tacc.utexas.edu"
PID    : 256526
I/O    : uncollated
Case   : /work/05124/newman/stampede2/openFOAM_3/mach-3-tunnel-with-step/rhoCentralFoam30
nProcs : 1
sigFpe : Enabling floating point exception trapping (FOAM_SIGFPE).
fileModificationChecking : Monitoring run-time modified files using timeStampMaster (fileModificationSkew 10)
allowSystemOperations : Allowing user-supplied system call operations

// * * * * * * * * * * * * * * * * * * * * * * * * * * * * * * * * * * * * * //
Create time

--> FOAM Warning : 
    From function void Foam::Time::setControls()
    in file db/Time/Time.C at line 205
    Increasing the timePrecision from 6 to 16 to support the formatting of the current time directory 3.9992881

Create polyMesh for time = 0

Time = 0

Mesh stats
    points:           5642
    internal points:  0
    faces:            10920
    internal faces:   5280
    cells:            2700
    faces per cell:   6
    boundary patches: 6
    point zones:      0
    face zones:       0
    cell zones:       0

Overall number of cells of each type:
    hexahedra:     2700
    prisms:        0
    wedges:        0
    pyramids:      0
    tet wedges:    0
    tetrahedra:    0
    polyhedra:     0

Checking topology...
    Boundary definition OK.
    Cell to face addressing OK.
    Point usage OK.
    Upper triangular ordering OK.
    Face vertices OK.
    Number of regions: 1 (OK).

Checking patch topology for multiply connected surfaces...
    Patch               Faces    Points   Surface topology                  
    inlet               60       122      ok (non-closed singly connected)  
    outlet              30       62       ok (non-closed singly connected)  
    top                 60       122      ok (non-closed singly connected)  
    bottom              30       62       ok (non-closed singly connected)  
    step                60       122      ok (non-closed singly connected)  
    defaultFaces        5400     5642     ok (non-closed singly connected)  

Checking geometry...
    Overall domain bounding box (0 0 -0.05) (3 1 0.05)
    Mesh has 2 geometric (non-empty/wedge) directions (1 1 0)
    Mesh has 2 solution (non-empty) directions (1 1 0)
    All edges aligned with or perpendicular to non-empty directions.
    Boundary openness (-9.91377e-18 -1.4258e-17 8.60678e-17) OK.
    Max cell openness = 1.0842e-16 OK.
    Max aspect ratio = 3 OK.
    Minimum face area = 0.000133333. Maximum face area = 0.008.  Face area magnitudes OK.
    Min volume = 1.33333e-05. Max volume = 0.000213333.  Total volume = 0.252.  Cell volumes OK.
    Mesh non-orthogonality Max: 0 average: 0
    Non-orthogonality check OK.
    Face pyramids OK.
    Max skewness = 3.33067e-14 OK.
    Coupled point location match (average 0) OK.

Mesh OK.

End

/*---------------------------------------------------------------------------*\
  =========                 |
  \\      /  F ield         | OpenFOAM: The Open Source CFD Toolbox
   \\    /   O peration     | Website:  https://openfoam.org
    \\  /    A nd           | Version:  6.0
     \\/     M anipulation  |
\*---------------------------------------------------------------------------*/
Build  : 6.0
Exec   : rhoCentralFoam
Date   : May 01 2019
Time   : 23:22:08
Host   : "c406-054.stampede2.tacc.utexas.edu"
PID    : 256598
I/O    : uncollated
Case   : /work/05124/newman/stampede2/openFOAM_3/mach-3-tunnel-with-step/rhoCentralFoam30
nProcs : 1
sigFpe : Enabling floating point exception trapping (FOAM_SIGFPE).
fileModificationChecking : Monitoring run-time modified files using timeStampMaster (fileModificationSkew 10)
allowSystemOperations : Allowing user-supplied system call operations

// * * * * * * * * * * * * * * * * * * * * * * * * * * * * * * * * * * * * * //
Create time

--> FOAM Warning : 
    From function void Foam::Time::setControls()
    in file db/Time/Time.C at line 205
    Increasing the timePrecision from 6 to 16 to support the formatting of the current time directory 3.9992881

Create mesh for time = 3.9992881

Reading thermophysical properties

Selecting thermodynamics package 
{
    type            hePsiThermo;
    mixture         pureMixture;
    transport       const;
    thermo          hConst;
    equationOfState perfectGas;
    specie          specie;
    energy          sensibleInternalEnergy;
}

Reading field U

Creating turbulence model

Selecting turbulence model type laminar
Selecting laminar stress model Stokes
fluxScheme: Kurganov

Starting time loop

End

/*---------------------------------------------------------------------------*\
  =========                 |
  \\      /  F ield         | OpenFOAM: The Open Source CFD Toolbox
   \\    /   O peration     | Website:  https://openfoam.org
    \\  /    A nd           | Version:  6.0
     \\/     M anipulation  |
\*---------------------------------------------------------------------------*/
Build  : 6.0
Exec   : postProcess -func graph
Date   : May 01 2019
Time   : 23:22:09
Host   : "c406-054.stampede2.tacc.utexas.edu"
PID    : 256619
I/O    : uncollated
Case   : /work/05124/newman/stampede2/openFOAM_3/mach-3-tunnel-with-step/rhoCentralFoam30
nProcs : 1
sigFpe : Enabling floating point exception trapping (FOAM_SIGFPE).
fileModificationChecking : Monitoring run-time modified files using timeStampMaster (fileModificationSkew 10)
allowSystemOperations : Allowing user-supplied system call operations

// * * * * * * * * * * * * * * * * * * * * * * * * * * * * * * * * * * * * * //
Create time

--> FOAM Warning : 
    From function void Foam::Time::setControls()
    in file db/Time/Time.C at line 205
    Increasing the timePrecision from 6 to 16 to support the formatting of the current time directory 3.9992881

Create mesh for time = 0


--> FOAM FATAL IO ERROR: 
wrong token type - expected Scalar, found on line 31 the word 'x1'

file: /work/05124/newman/stampede2/openFOAM_3/mach-3-tunnel-with-step/rhoCentralFoam30/system/graph.sets.start at line 31.

    From function Foam::Istream &Foam::operator>>(Foam::Istream &, double &)
    in file lnInclude/Scalar.C at line 93.

